REMARK  12 active torsions:
REMARK  status: ('A' for Active; 'I' for Inactive)
REMARK    1  A    between atoms: C4_9  and  NA4_10 
REMARK    2  A    between atoms: C6_16  and  C9_21 
REMARK    3  A    between atoms: C9_21  and  N10_22 
REMARK    4  A    between atoms: N10_22  and  C14_27 
REMARK    5  A    between atoms: C11_24  and  C_30 
REMARK    6  A    between atoms: C_30  and  O_31 
REMARK    7  A    between atoms: C_30  and  N_33 
REMARK    8  A    between atoms: N_33  and  CA_35 
REMARK    9  A    between atoms: CA_35  and  CT_36 
REMARK   10  A    between atoms: CA_35  and  CB_39 
REMARK   11  A    between atoms: CB_39  and  CG_40 
REMARK   12  A    between atoms: CG_40  and  CD_41 
ROOT
HETATM    1  N1  MTX A 161      22.983  58.667  24.488  1.00 15.10    -0.174 N 
HETATM    2  H1  MTX A 161      23.519  58.985  25.295  1.00  0.00     0.186 HD
HETATM    3  C2  MTX A 161      23.468  58.215  23.282  1.00 17.30     0.679 A 
HETATM    4  NA2 MTX A 161      24.797  58.223  23.208  1.00 16.50    -0.234 N 
HETATM    5 1HA2 MTX A 161      25.323  58.531  24.026  1.00  0.00     0.174 HD
HETATM    6 2HA2 MTX A 161      25.156  57.888  22.314  1.00  0.00     0.174 HD
HETATM    7  N3  MTX A 161      22.792  57.819  22.230  1.00 17.90    -0.175 N 
HETATM    8  H3  MTX A 161      23.345  57.483  21.441  1.00  0.00     0.186 HD
HETATM    9  C4  MTX A 161      21.459  57.803  22.068  1.00 18.60     0.145 A 
HETATM   10  C4A MTX A 161      20.900  58.304  23.363  1.00 18.90     0.122 A 
HETATM   11  N5  MTX A 161      19.558  58.514  23.370  1.00 19.80    -0.351 N 
HETATM   12  H5  MTX A 161      19.003  58.300  22.541  1.00  0.00     0.166 HD
HETATM   13  C6  MTX A 161      18.989  58.982  24.422  1.00 18.60     0.043 C 
HETATM   14  C7  MTX A 161      19.781  59.256  25.628  1.00 18.80     0.116 C 
HETATM   15  N8  MTX A 161      21.096  59.176  25.562  1.00 21.90    -0.348 N 
HETATM   16  H8  MTX A 161      21.703  59.506  26.313  1.00  0.00     0.167 HD
HETATM   17  C8A MTX A 161      21.608  58.594  24.363  1.00 19.50     0.151 A 
ENDROOT
BRANCH   9  18
HETATM   18  NA4 MTX A 161      20.821  57.440  21.075  1.00 18.10    -0.383 N 
HETATM   19 2HA4 MTX A 161      19.809  57.428  20.952  1.00  0.00     0.157 HD
HETATM   20 1HA4 MTX A 161      21.202  57.099  20.193  1.00  0.00     0.157 HD
ENDBRANCH   9  18
BRANCH  13  21
HETATM   21  C9  MTX A 161      17.465  59.006  24.451  1.00 20.50     0.181 C 
BRANCH  21  22
HETATM   22  N10 MTX A 161      16.957  59.967  25.533  1.00 17.40    -0.380 N 
HETATM   23  CM  MTX A 161      16.225  59.184  26.643  1.00 22.30     0.150 C 
BRANCH  22  24
HETATM   24  C14 MTX A 161      17.320  61.452  25.680  1.00 19.70     0.030 A 
HETATM   25  C15 MTX A 161      18.141  62.098  24.672  1.00 17.60     0.030 A 
HETATM   26  C16 MTX A 161      18.518  63.414  24.738  1.00 17.00     0.018 A 
HETATM   27  C11 MTX A 161      18.122  64.100  25.805  1.00 22.10     0.015 A 
HETATM   28  C12 MTX A 161      17.288  63.511  26.732  1.00 18.80     0.018 A 
HETATM   29  C13 MTX A 161      16.845  62.195  26.688  1.00 18.10     0.030 A 
BRANCH  27  30
HETATM   30  C   MTX A 161      18.192  65.626  25.834  1.00 23.30     0.147 C 
BRANCH  30  31
HETATM   31  O   MTX A 161      17.516  66.280  26.783  1.00 25.90    -0.346 OA
HETATM   32  HO  MTX A 161      17.560  67.229  26.801  1.00  0.00     0.219 HD
ENDBRANCH  30  31
BRANCH  30  33
HETATM   33  N   MTX A 161      19.329  65.981  25.135  1.00 21.30    -0.356 N 
HETATM   34  HN  MTX A 161      19.843  65.271  24.613  1.00  0.00     0.162 HD
BRANCH  33  35
HETATM   35  CA  MTX A 161      19.837  67.459  25.135  1.00 22.60     0.185 C 
BRANCH  35  36
HETATM   36  CT  MTX A 161      20.159  67.548  23.635  1.00 22.80     0.196 C 
HETATM   37  O1  MTX A 161      20.289  66.659  22.848  1.00 21.30    -0.646 OA
HETATM   38  O2  MTX A 161      19.921  68.750  23.149  1.00 27.20    -0.646 OA
ENDBRANCH  35  36
BRANCH  35  39
HETATM   39  CB  MTX A 161      21.217  67.669  25.761  1.00 27.40     0.046 C 
BRANCH  39  40
HETATM   40  CG  MTX A 161      20.891  67.636  27.320  1.00 36.20     0.116 C 
BRANCH  40  41
HETATM   41  CD  MTX A 161      19.921  68.524  28.357  1.00 41.50     0.172 C 
HETATM   42  OE1 MTX A 161      19.413  68.371  29.593  1.00 49.10    -0.648 OA
HETATM   43  OE2 MTX A 161      19.441  69.469  27.489  1.00 42.50    -0.648 OA
ENDBRANCH  40  41
ENDBRANCH  39  40
ENDBRANCH  35  39
ENDBRANCH  33  35
ENDBRANCH  30  33
ENDBRANCH  27  30
ENDBRANCH  22  24
ENDBRANCH  21  22
ENDBRANCH  13  21
TORSDOF 12
