REMARK  10 active torsions:
REMARK  status: ('A' for Active; 'I' for Inactive)
REMARK    1  A    between atoms: N2_3  and  C2_4 
REMARK    2  A    between atoms: C2_4  and  C20_15 
REMARK    3  A    between atoms: C3_5  and  C31_25 
REMARK    4  A    between atoms: C4_6  and  O4_7 
REMARK    5  A    between atoms: C5_9  and  O5_10 
REMARK    6  A    between atoms: C6_12  and  C61_32 
REMARK    7  A    between atoms: N7_13  and  C7_14 
REMARK    8  A    between atoms: C7_14  and  C70_39 
REMARK    9  A    between atoms: C31_25  and  C32_26 
REMARK   10  A    between atoms: C61_32  and  C62_33 
ROOT
HETATM    1  C1  XK2 A 263      -8.611  15.060  27.954  1.00 19.90     0.322 C 
HETATM    2  O1  XK2 A 263      -7.939  14.039  27.941  1.00 20.46    -0.247 OA
HETATM    3  N2  XK2 A 263      -8.461  15.923  26.905  1.00 18.96    -0.322 N 
HETATM    4  C3  XK2 A 263      -8.627  17.388  27.011  1.00 16.64     0.124 C 
HETATM    5  C4  XK2 A 263     -10.029  17.910  27.298  1.00 16.75     0.172 C 
HETATM    6  C5  XK2 A 263     -10.461  17.645  28.733  1.00 16.33     0.172 C 
HETATM    7  C6  XK2 A 263     -10.657  16.152  28.964  1.00 17.82     0.124 C 
HETATM    8  N7  XK2 A 263      -9.461  15.294  29.004  1.00 18.56    -0.322 N 
ENDROOT
BRANCH   3   9
HETATM    9  C2  XK2 A 263      -7.854  15.351  25.696  1.00 17.53     0.166 C 
BRANCH   9  10
HETATM   10  C20 XK2 A 263      -8.381  15.730  24.336  1.00 19.60    -0.039 A 
HETATM   11  C21 XK2 A 263      -9.769  15.712  24.022  1.00 21.97     0.010 A 
HETATM   12  C22 XK2 A 263     -10.195  15.919  22.694  1.00 22.13     0.013 A 
HETATM   13  C23 XK2 A 263      -9.219  16.152  21.693  1.00 22.78    -0.026 A 
HETATM   14  C24 XK2 A 263      -9.608  16.304  20.349  1.00 23.58     0.012 A 
HETATM   15  C28 XK2 A 263      -7.828  16.192  22.022  1.00 23.18    -0.025 A 
HETATM   16  C25 XK2 A 263      -8.626  16.508  19.349  1.00 26.36     0.001 A 
HETATM   17  C26 XK2 A 263      -7.263  16.562  19.662  1.00 24.91     0.001 A 
HETATM   18  C27 XK2 A 263      -6.860  16.403  21.006  1.00 26.98     0.012 A 
HETATM   19  C29 XK2 A 263      -7.408  15.983  23.346  1.00 20.82     0.021 A 
ENDBRANCH   9  10
ENDBRANCH   3   9
BRANCH   8  20
HETATM   20  C7  XK2 A 263      -9.271  14.491  30.215  1.00 19.97     0.166 C 
BRANCH  20  21
HETATM   21  C70 XK2 A 263      -9.374  15.148  31.571  1.00 20.15    -0.039 A 
HETATM   22  C71 XK2 A 263     -10.228  14.492  32.477  1.00 22.33     0.021 A 
HETATM   23  C72 XK2 A 263     -10.272  14.926  33.800  1.00 24.26    -0.025 A 
HETATM   24  C73 XK2 A 263     -11.156  14.282  34.709  1.00 29.56     0.012 A 
HETATM   25  C77 XK2 A 263      -9.455  16.028  34.212  1.00 23.89    -0.026 A 
HETATM   26  C74 XK2 A 263     -11.245  14.748  36.044  1.00 29.18     0.001 A 
HETATM   27  C75 XK2 A 263     -10.435  15.837  36.451  1.00 26.45     0.001 A 
HETATM   28  C76 XK2 A 263      -9.540  16.475  35.553  1.00 25.15     0.012 A 
HETATM   29  C78 XK2 A 263      -8.605  16.691  33.288  1.00 21.80     0.013 A 
HETATM   30  C79 XK2 A 263      -8.574  16.252  31.962  1.00 18.98     0.010 A 
ENDBRANCH  20  21
ENDBRANCH   8  20
BRANCH   4  31
HETATM   31  C31 XK2 A 263      -7.476  17.972  27.894  1.00 17.00     0.066 C 
BRANCH  31  32
HETATM   32  C32 XK2 A 263      -6.124  17.890  27.193  1.00 23.02    -0.056 A 
HETATM   33  C37 XK2 A 263      -5.803  18.811  26.163  1.00 21.66     0.007 A 
HETATM   34  C36 XK2 A 263      -4.607  18.660  25.432  1.00 21.61     0.001 A 
HETATM   35  C35 XK2 A 263      -3.730  17.585  25.723  1.00 23.48     0.000 A 
HETATM   36  C34 XK2 A 263      -4.029  16.667  26.750  1.00 21.82     0.001 A 
HETATM   37  C33 XK2 A 263      -5.226  16.826  27.494  1.00 27.22     0.007 A 
ENDBRANCH  31  32
ENDBRANCH   4  31
BRANCH   7  38
HETATM   38  C61 XK2 A 263     -11.712  15.451  28.079  1.00 20.34     0.066 C 
BRANCH  38  39
HETATM   39  C62 XK2 A 263     -12.310  14.248  28.779  1.00 20.04    -0.056 A 
HETATM   40  C67 XK2 A 263     -11.992  12.954  28.304  1.00 19.66     0.007 A 
HETATM   41  C66 XK2 A 263     -12.529  11.814  28.944  1.00 18.58     0.001 A 
HETATM   42  C65 XK2 A 263     -13.374  11.982  30.058  1.00 19.90     0.000 A 
HETATM   43  C64 XK2 A 263     -13.700  13.281  30.542  1.00 19.34     0.001 A 
HETATM   44  C63 XK2 A 263     -13.167  14.422  29.898  1.00 20.49     0.007 A 
ENDBRANCH  38  39
ENDBRANCH   7  38
BRANCH   5  45
HETATM   45  O4  XK2 A 263      -9.929  19.274  26.998  1.00 17.20    -0.391 OA
HETATM   46  H4  XK2 A 263     -10.803  19.600  27.177  1.00  0.00     0.210 HD
ENDBRANCH   5  45
BRANCH   6  47
HETATM   47  O5  XK2 A 263     -11.692  18.254  29.020  1.00 16.28    -0.391 OA
HETATM   48  H5  XK2 A 263     -11.962  18.089  29.916  1.00  0.00     0.210 HD
ENDBRANCH   6  47
TORSDOF 10
