REMARK  8 active torsions:
REMARK  status: ('A' for Active; 'I' for Inactive)
REMARK       I    between atoms: N14_1  and  C12_10 
REMARK    1  A    between atoms: N14_1  and  C15_5 
REMARK    2  A    between atoms: C21_8  and  O22_27 
REMARK    3  A    between atoms: C23_9  and  O22_27 
REMARK       I    between atoms: C12_10  and  N11_23 
REMARK    4  A    between atoms: C7_19  and  C8_20 
REMARK    5  A    between atoms: C8_20  and  C9_21 
REMARK       I    between atoms: C9_21  and  N11_23 
REMARK    6  A    between atoms: C31_36  and  C32_37 
REMARK    7  A    between atoms: C32_37  and  N34_38 
REMARK    8  A    between atoms: C37_41  and  N39_43 
ROOT
HETATM    1  N14 CKK A1500      -0.337   6.224  52.396  1.00 44.90    -0.309 N 
HETATM    2  H14 CKK A1500      -0.180   5.398  52.973  1.00  0.00     0.170 HD
HETATM    3  C12 CKK A1500      -0.679   6.022  51.115  1.00 45.61     0.327 C 
HETATM    4  C9  CKK A1500      -0.990   3.769  51.690  1.00 45.99     0.229 C 
HETATM    5  O10 CKK A1500      -0.815   3.980  52.894  1.00 48.71    -0.273 OA
HETATM    6  N11 CKK A1500      -0.953   4.771  50.790  1.00 46.14    -0.279 N 
HETATM    7  H11 CKK A1500      -1.145   4.554  49.812  1.00  0.00     0.173 HD
HETATM    8  O13 CKK A1500      -0.771   6.826  50.227  1.00 49.67    -0.247 OA
ENDROOT
BRANCH   1   9
HETATM    9  C15 CKK A1500      -0.176   7.485  53.014  1.00 47.95     0.039 A 
HETATM   10  C19 CKK A1500       0.146   7.604  54.394  1.00 47.20     0.032 A 
HETATM   11  C20 CKK A1500       0.293   8.894  54.956  1.00 49.11     0.043 A 
HETATM   12  C21 CKK A1500       0.109  10.023  54.132  1.00 51.52     0.116 A 
HETATM   13  C17 CKK A1500      -0.197   9.888  52.796  1.00 52.69     0.152 A 
HETATM   14  C16 CKK A1500      -0.334   8.637  52.252  1.00 51.18     0.074 A 
HETATM   15  F18 CKK A1500      -0.368  10.960  52.017  1.00 52.80    -0.203 F 
BRANCH  12  16
HETATM   16  O22 CKK A1500       0.217  11.331  54.587  1.00 52.57    -0.288 OA
BRANCH  16  17
HETATM   17  C23 CKK A1500      -0.840  11.680  55.378  1.00 51.24     0.178 A 
HETATM   18  C27 CKK A1500      -0.475  12.603  56.386  1.00 51.67     0.115 A 
HETATM   19  N28 CKK A1500      -1.502  12.973  57.205  1.00 49.87    -0.262 N 
HETATM   20  C31 CKK A1500       0.692  13.262  56.779  1.00 51.66     0.004 A 
HETATM   21  C29 CKK A1500      -1.063  13.858  58.125  1.00 49.87     0.117 A 
HETATM   22  N26 CKK A1500      -2.746  12.499  57.098  1.00 49.72    -0.289 N 
HETATM   23  C30 CKK A1500       0.292  14.043  57.931  1.00 50.96     0.030 A 
HETATM   24  C25 CKK A1500      -2.944  11.650  56.140  1.00 49.83     0.200 A 
HETATM   25  H26 CKK A1500      -3.493  12.787  57.730  1.00  0.00     0.188 HD
HETATM   26  N24 CKK A1500      -2.024  11.219  55.241  1.00 51.00    -0.330 N 
HETATM   27  H24 CKK A1500      -2.264  10.564  54.497  1.00  0.00     0.168 HD
BRANCH  20  28
HETATM   28  C32 CKK A1500       2.069  13.242  56.181  1.00 51.83     0.313 C 
BRANCH  28  29
HETATM   29  N34 CKK A1500       3.026  12.547  57.048  1.00 54.08     0.092 N 
HETATM   30  C33 CKK A1500       2.900  11.119  56.710  1.00 55.95     0.275 C 
HETATM   31  C38 CKK A1500       3.862  10.275  57.509  1.00 57.57     0.063 C 
HETATM   32  C37 CKK A1500       5.276  10.696  57.181  1.00 57.58     0.186 C 
HETATM   33  C36 CKK A1500       5.507  12.185  57.494  1.00 55.30     0.063 C 
HETATM   34  C35 CKK A1500       4.417  13.048  56.831  1.00 54.75     0.275 C 
BRANCH  32  35
HETATM   35  N39 CKK A1500       6.151   9.807  57.982  1.00 58.18    -0.075 N 
HETATM   36 3H39 CKK A1500       7.133  10.058  57.868  1.00  0.00     0.274 HD
HETATM   37 2H39 CKK A1500       6.049   9.993  58.980  1.00  0.00     0.274 HD
HETATM   38 1H39 CKK A1500       5.998   8.820  57.775  1.00  0.00     0.274 HD
ENDBRANCH  32  35
ENDBRANCH  28  29
ENDBRANCH  20  28
ENDBRANCH  16  17
ENDBRANCH  12  16
ENDBRANCH   1   9
BRANCH   4  39
HETATM   39  C8  CKK A1500      -1.183   2.444  51.035  1.00 41.25     0.141 C 
BRANCH  39  40
HETATM   40  C7  CKK A1500      -1.240   1.418  52.062  1.00 44.00    -0.049 A 
HETATM   41  C6  CKK A1500      -2.347   1.337  52.947  1.00 46.88     0.011 A 
HETATM   42  C5  CKK A1500      -2.403   0.350  53.931  1.00 48.59     0.043 A 
HETATM   43  C2  CKK A1500      -1.320  -0.521  53.973  1.00 50.37     0.116 A 
HETATM   44  C3  CKK A1500      -0.242  -0.456  53.142  1.00 46.89     0.043 A 
HETATM   45  F1  CKK A1500      -1.301  -1.480  54.874  1.00 56.82    -0.206 F 
HETATM   46  C4  CKK A1500      -0.169   0.537  52.160  1.00 45.72     0.011 A 
ENDBRANCH  39  40
ENDBRANCH   4  39
TORSDOF 8
