REMARK  3 active torsions:
REMARK  status: ('A' for Active; 'I' for Inactive)
REMARK       I    between atoms: C17_2  and  N18_3 
REMARK       I    between atoms: C17_2  and  N16_13 
REMARK    1  A    between atoms: N18_3  and  C19_5 
REMARK    2  A    between atoms: C9_17  and  C12_18 
REMARK    3  A    between atoms: N7_24  and  C5_25 
ROOT
HETATM    1  O27 1PP A 401      13.816  -0.500  29.214  1.00 24.84    -0.247 OA
HETATM    2  C17 1PP A 401      13.286  -1.299  29.974  1.00 19.50     0.326 C 
HETATM    3  N18 1PP A 401      13.873  -2.458  30.284  1.00 19.72    -0.307 N 
HETATM    4  H18 1PP A 401      13.392  -3.082  30.932  1.00  0.00     0.170 HD
HETATM    5  N16 1PP A 401      12.100  -1.055  30.537  1.00 16.90    -0.293 N 
HETATM    6  H16 1PP A 401      11.720  -1.753  31.176  1.00  0.00     0.172 HD
HETATM    7  C11 1PP A 401      11.377   0.056  30.312  1.00 15.52     0.133 A 
HETATM    8  C10 1PP A 401      11.157   0.774  29.130  1.00 14.86     0.077 A 
HETATM    9  C9  1PP A 401      10.272   1.772  29.565  1.00 17.67     0.037 A 
HETATM   10  N8  1PP A 401       9.910   1.704  30.855  1.00 15.44    -0.295 N 
HETATM   11  H8  1PP A 401       9.277   2.312  31.375  1.00  0.00     0.187 HD
HETATM   12  N7  1PP A 401      10.626   0.580  31.308  1.00 14.93    -0.240 N 
ENDROOT
BRANCH   3  13
HETATM   13  C19 1PP A 401      15.072  -2.853  29.787  1.00 19.63     0.059 A 
HETATM   14  C24 1PP A 401      16.147  -1.988  29.549  1.00 18.44     0.031 A 
HETATM   15  C23 1PP A 401      17.360  -2.473  29.037  1.00 19.27     0.004 A 
HETATM   16  C22 1PP A 401      17.551  -3.832  28.716  1.00 20.13     0.026 A 
HETATM   17  C21 1PP A 401      16.486  -4.709  28.928  1.00 21.59     0.058 A 
HETATM   18 CL2  1PP A 401      16.583  -6.468  28.608  1.00 18.74    -0.082 Cl
HETATM   19  C20 1PP A 401      15.219  -4.180  29.492  1.00 18.79     0.082 A 
HETATM   20 CL1  1PP A 401      13.877  -5.305  29.743  1.00 23.67    -0.080 Cl
ENDBRANCH   3  13
BRANCH  12  21
HETATM   21  C5  1PP A 401      10.551   0.234  32.644  1.00 12.45     0.058 A 
HETATM   22  C4  1PP A 401       9.347   0.221  33.377  1.00 11.85     0.031 A 
HETATM   23  C3  1PP A 401       9.229  -0.101  34.770  1.00 14.77     0.002 A 
HETATM   24  C2  1PP A 401      10.376  -0.419  35.521  1.00  9.63     0.000 A 
HETATM   25  C1  1PP A 401      11.606  -0.387  34.828  1.00  8.79     0.002 A 
HETATM   26  C6  1PP A 401      11.652  -0.118  33.426  1.00  9.88     0.031 A 
ENDBRANCH  12  21
BRANCH   9  27
HETATM   27  C12 1PP A 401       9.691   2.845  28.666  1.00 18.52    -0.007 C 
HETATM   28  C15 1PP A 401       8.620   2.156  27.820  1.00 17.37     0.021 C 
HETATM   29  C13 1PP A 401       9.055   3.933  29.531  1.00 20.05     0.021 C 
HETATM   30  C14 1PP A 401      10.808   3.461  27.824  1.00 16.85     0.021 C 
ENDBRANCH   9  27
TORSDOF 3
