REMARK  1 active torsions:
REMARK  status: ('A' for Active; 'I' for Inactive)
REMARK    1  A    between atoms: C2_11  and  N2_12 
ROOT
HETATM    1  N9  GUN A 290       2.939  18.678  25.747  1.00 26.79    -0.336 N 
HETATM    2  H9  GUN A 290       3.539  18.656  24.922  1.00  0.00     0.168 HD
HETATM    3  C8  GUN A 290       2.642  19.788  26.558  1.00 28.22     0.182 A 
HETATM    4  N7  GUN A 290       1.790  19.497  27.561  1.00 28.27    -0.345 N 
HETATM    5  H7  GUN A 290       1.401  20.117  28.271  1.00  0.00     0.167 HD
HETATM    6  C5  GUN A 290       1.574  18.121  27.378  1.00 27.18     0.147 A 
HETATM    7  C6  GUN A 290       0.740  17.282  28.127  1.00 28.49     0.290 A 
HETATM    8  O6  GUN A 290       0.038  17.605  29.088  1.00 30.31    -0.265 OA
HETATM    9  N1  GUN A 290       0.709  15.981  27.617  1.00 27.71    -0.154 N 
HETATM   10  H1  GUN A 290       0.119  15.291  28.082  1.00  0.00     0.187 HD
HETATM   11  C2  GUN A 290       1.429  15.591  26.530  1.00 27.35     0.680 A 
HETATM   12  N3  GUN A 290       2.235  16.387  25.855  1.00 27.36    -0.174 N 
HETATM   13  H3  GUN A 290       2.795  16.074  25.062  1.00  0.00     0.186 HD
HETATM   14  C4  GUN A 290       2.247  17.629  26.305  1.00 26.82     0.154 A 
ENDROOT
BRANCH  11  15
HETATM   15  N2  GUN A 290       1.337  14.308  26.152  1.00 27.20    -0.234 N 
HETATM   16  H22 GUN A 290       1.877  14.016  25.337  1.00  0.00     0.174 HD
HETATM   17  H21 GUN A 290       0.714  13.692  26.674  1.00  0.00     0.174 HD
ENDBRANCH  11  15
TORSDOF 1
