REMARK  15 active torsions:
REMARK  status: ('A' for Active; 'I' for Inactive)
REMARK    1  A    between atoms: PA_1  and  O5B_4 
REMARK    2  A    between atoms: PA_1  and  O3_30 
REMARK    3  A    between atoms: O5B_4  and  C5B_5 
REMARK    4  A    between atoms: C5B_5  and  C4B_6 
REMARK    5  A    between atoms: C3B_8  and  O3B_9 
REMARK    6  A    between atoms: C2B_11  and  O2B_12 
REMARK    7  A    between atoms: C1B_14  and  N9A_15 
REMARK    8  A    between atoms: O3_30  and  PN_31 
REMARK    9  A    between atoms: PN_31  and  O5D_34 
REMARK   10  A    between atoms: O5D_34  and  C5D_35 
REMARK   11  A    between atoms: C5D_35  and  C4D_36 
REMARK   12  A    between atoms: C3D_38  and  O3D_39 
REMARK   13  A    between atoms: C2D_41  and  O2D_42 
REMARK   14  A    between atoms: C1D_44  and  N1N_45 
REMARK   15  A    between atoms: C3N_47  and  C7N_48 
REMARK       I    between atoms: C7N_48  and  N7N_50 
ROOT
HETATM    1  PA  NAD A 433      38.675  -8.236 105.742  1.00 20.26     0.417 P 
HETATM    2  O1A NAD A 433      38.076  -8.062 107.048  1.00 20.49    -0.624 OA
HETATM    3  O2A NAD A 433      39.766  -7.357 105.528  1.00 19.52    -0.624 OA
ENDROOT
BRANCH   1   4
HETATM    4  O5B NAD A 433      37.338  -8.358 104.870  1.00 19.62    -0.287 OA
BRANCH   4   5
HETATM    5  C5B NAD A 433      36.233  -8.524 104.419  1.00 19.51     0.216 C 
BRANCH   5   6
HETATM    6  C4B NAD A 433      35.151  -7.592 104.215  1.00 19.17     0.180 C 
HETATM    7  O4B NAD A 433      34.033  -8.135 103.957  1.00 19.80    -0.354 OA
HETATM    8  C1B NAD A 433      33.013  -7.088 104.262  1.00 19.81     0.258 C 
HETATM    9  C2B NAD A 433      33.468  -6.427 105.389  1.00 19.58     0.198 C 
HETATM   10  C3B NAD A 433      34.919  -6.562 105.126  1.00 19.27     0.182 C 
BRANCH   8  11
HETATM   11  N9A NAD A 433      31.778  -7.698 104.388  1.00 20.31    -0.320 N 
HETATM   12  C8A NAD A 433      31.319  -8.521 105.651  1.00 20.64     0.251 A 
HETATM   13  N7A NAD A 433      30.096  -8.982 105.492  1.00 20.57    -0.367 N 
HETATM   14  C5A NAD A 433      29.753  -8.561 104.327  1.00 20.65     0.118 A 
HETATM   15  H7A NAD A 433      29.547  -9.544 106.143  1.00  0.00     0.161 HD
HETATM   16  C6A NAD A 433      28.456  -8.765 103.595  1.00 20.74     0.130 A 
HETATM   17  C4A NAD A 433      30.830  -7.743 103.611  1.00 20.35     0.138 A 
HETATM   18  N1A NAD A 433      28.406  -8.131 102.220  1.00 21.50    -0.337 N 
HETATM   19  N6A NAD A 433      27.427  -9.404 104.002  1.00 20.79    -0.383 N 
HETATM   20  C2A NAD A 433      29.545  -7.374 101.665  1.00 21.06     0.183 A 
HETATM   21  H1A NAD A 433      27.559  -8.230 101.660  1.00  0.00     0.168 HD
HETATM   22  N3A NAD A 433      30.680  -7.204 102.350  1.00 20.60    -0.337 N 
HETATM   23  H3A NAD A 433      31.444  -6.670 101.936  1.00  0.00     0.168 HD
HETATM   24 2H6A NAD A 433      27.461  -9.831 104.928  1.00  0.00     0.157 HD
HETATM   25 1H6A NAD A 433      26.547  -9.542 103.505  1.00  0.00     0.157 HD
ENDBRANCH   8  11
BRANCH   9  26
HETATM   26  O2B NAD A 433      33.049  -5.167 105.630  1.00 19.85    -0.388 OA
HETATM   27  H2B NAD A 433      32.118  -5.080 105.799  1.00  0.00     0.210 HD
ENDBRANCH   9  26
BRANCH  10  28
HETATM   28  O3B NAD A 433      35.549  -5.243 104.652  1.00 18.58    -0.390 OA
HETATM   29  H3B NAD A 433      36.480  -5.330 104.483  1.00  0.00     0.210 HD
ENDBRANCH  10  28
ENDBRANCH   5   6
ENDBRANCH   4   5
ENDBRANCH   1   4
BRANCH   1  30
HETATM   30  O3  NAD A 433      38.980  -9.934 105.776  1.00 19.74    -0.180 OA
BRANCH  30  31
HETATM   31  PN  NAD A 433      40.158 -10.431 104.749  1.00 19.57     0.417 P 
HETATM   32  O2N NAD A 433      41.632 -10.410 105.252  1.00 19.71    -0.624 OA
HETATM   33  O1N NAD A 433      39.889  -9.818 103.467  1.00 19.04    -0.624 OA
BRANCH  31  34
HETATM   34  O5D NAD A 433      39.782 -11.671 104.684  1.00 19.29    -0.287 OA
BRANCH  34  35
HETATM   35  C5D NAD A 433      38.479 -12.327 104.280  1.00 18.79     0.216 C 
BRANCH  35  36
HETATM   36  C4D NAD A 433      38.238 -13.865 104.071  1.00 19.00     0.180 C 
HETATM   37  C3D NAD A 433      38.375 -14.573 105.546  1.00 18.62     0.182 C 
HETATM   38  C2D NAD A 433      39.811 -14.950 105.562  1.00 18.86     0.198 C 
HETATM   39  C1D NAD A 433      40.104 -15.513 104.152  1.00 17.80     0.251 C 
HETATM   40  O4D NAD A 433      39.360 -14.539 103.279  1.00 18.82    -0.354 OA
BRANCH  37  41
HETATM   41  O3D NAD A 433      37.610 -15.733 105.644  1.00 18.75    -0.390 OA
HETATM   42  H3D NAD A 433      37.689 -16.143 106.497  1.00  0.00     0.210 HD
ENDBRANCH  37  41
BRANCH  38  43
HETATM   43  O2D NAD A 433      40.214 -15.877 106.594  1.00 18.95    -0.389 OA
HETATM   44  H2D NAD A 433      40.034 -15.531 107.460  1.00  0.00     0.210 HD
ENDBRANCH  38  43
BRANCH  39  45
HETATM   45  N1N NAD A 433      41.463 -15.546 103.576  1.00 17.42    -0.378 N 
HETATM   46  C2N NAD A 433      41.556 -16.467 102.461  1.00 16.72     0.164 C 
HETATM   47  C3N NAD A 433      42.905 -16.485 101.931  1.00 16.88     0.026 C 
HETATM   48  C4N NAD A 433      44.077 -15.447 102.374  1.00 17.09     0.012 C 
HETATM   49  C5N NAD A 433      43.715 -14.485 103.347  1.00 17.40    -0.007 C 
HETATM   50  C6N NAD A 433      42.430 -14.563 104.089  1.00 17.13     0.147 C 
BRANCH  47  51
HETATM   51  C7N NAD A 433      42.915 -17.533 100.760  1.00 16.76     0.246 C 
HETATM   52  N7N NAD A 433      41.826 -18.192 100.367  1.00 16.12    -0.366 N 
HETATM   53 2H7N NAD A 433      41.832 -18.872  99.607  1.00  0.00     0.159 HD
HETATM   54 1H7N NAD A 433      40.862 -18.025 100.656  1.00  0.00     0.159 HD
HETATM   55  O7N NAD A 433      44.056 -17.731 100.418  1.00 16.51    -0.268 OA
ENDBRANCH  47  51
ENDBRANCH  39  45
ENDBRANCH  35  36
ENDBRANCH  34  35
ENDBRANCH  31  34
ENDBRANCH  30  31
ENDBRANCH   1  30
TORSDOF 15
