4HMG_SIA_A_329
  RCSB PDB01161513293D
Coordinates from PDB:4HMG:A:329 Model:1 without hydrogens
 21 21  0  0  0  0            999 V2000
   -7.7980   71.9040   28.2170   C 0  0  0  0  0  0  0  0  0  0  0  0
   -8.2330   73.2860   27.6630   C 0  0  0  0  0  0  0  0  0  0  0  0
   -7.9180   74.3780   28.7010   C 0  0  0  0  0  0  0  0  0  0  0  0
   -6.4370   74.7480   28.7150   C 0  0  0  0  0  0  0  0  0  0  0  0
   -6.0380   75.2340   27.3150   C 0  0  0  0  0  0  0  0  0  0  0  0
   -6.2370   74.0330   26.3710   C 0  0  0  0  0  0  0  0  0  0  0  0
   -5.9050   74.2380   24.8840   C 0  0  0  0  0  0  0  0  0  0  0  0
   -6.1300   72.9040   24.1200   C 0  0  0  0  0  0  0  0  0  0  0  0
   -5.7870   73.0170   22.6270   C 0  0  0  0  0  0  0  0  0  0  0  0
   -4.1070   76.5880   26.6440   C 0  0  0  0  0  0  0  0  0  0  0  0
   -2.6820   77.0220   26.9380   C 0  0  0  0  0  0  0  0  0  0  0  0
   -4.6620   75.6850   27.4430   N 0  0  0  0  0  0  0  0  0  0  0  0
   -6.7610   71.3450   27.8790   O 0  0  0  0  0  0  0  0  0  0  0  0
   -8.5160   71.3520   29.0430   O 0  0  0  0  0  0  0  0  0  0  0  0
   -9.6180   73.2080   27.4190   O 0  0  0  0  0  0  0  0  0  0  0  0
   -6.1260   75.7350   29.6920   O 0  0  0  0  0  0  0  0  0  0  0  0
   -7.6140   73.6120   26.4130   O 0  0  0  0  0  0  0  0  0  0  0  0
   -6.7480   75.2510   24.3730   O 0  0  0  0  0  0  0  0  0  0  0  0
   -5.3470   71.8540   24.6570   O 0  0  0  0  0  0  0  0  0  0  0  0
   -5.6130   71.7040   22.1300   O 0  0  0  0  0  0  0  0  0  0  0  0
   -4.7190   77.0280   25.6740   O 0  0  0  0  0  0  0  0  0  0  0  0
  1  2  1  0  0  0  0
  1 13  2  0  0  0  0
  1 14  1  0  0  0  0
  2  3  1  0  0  0  0
  2 15  1  0  0  0  0
  2 17  1  0  0  0  0
  3  4  1  0  0  0  0
  4  5  1  0  0  0  0
  4 16  1  0  0  0  0
  5  6  1  0  0  0  0
  5 12  1  0  0  0  0
  6  7  1  0  0  0  0
  6 17  1  0  0  0  0
  7  8  1  0  0  0  0
  7 18  1  0  0  0  0
  8  9  1  0  0  0  0
  8 19  1  0  0  0  0
  9 20  1  0  0  0  0
 10 11  1  0  0  0  0
 10 12  1  0  0  0  0
 10 21  2  0  0  0  0
A    1
C1
A    2
C2
A    3
C3
A    4
C4
A    5
C5
A    6
C6
A    7
C7
A    8
C8
A    9
C9
A   10
C10
A   11
C11
A   12
N5
A   13
O1A
A   14
O1B
A   15
O2
A   16
O4
A   17
O6
A   18
O7
A   19
O8
A   20
O9
A   21
O10
M  END
>  <InstanceId>
4HMG_SIA_A_329

>  <ChemCompId>
SIA

>  <PdbId>
4HMG

>  <ChainId>
A

>  <ResidueNumber>
329

>  <InsertionCode>


>  <Model>
1

>  <AltIds>


>  <MissingHeavyAtoms>
0

>  <ObservedFormula>
C11 N O9

>  <Name>
O-SIALIC ACID

>  <SystematicName>
(2R,4S,5R,6R)-5-acetamido-2,4-dihydroxy-6-[(1R,2R)-1,2,3-trihydroxypropyl]oxane-2-carboxylic acid

>  <Synonyms>


>  <Type>
NON-POLYMER

>  <Formula>
C11 H19 N O9

>  <MolecularWeight>
309.27

>  <ModifiedDate>
2011-06-04

>  <Parent>


>  <OneLetterCode>


>  <SubcomponentList>


>  <AmbiguousFlag>
N

>  <InChI>
InChI=1S/C11H19NO9/c1-4(14)12-7-5(15)2-11(20,10(18)19)21-9(7)8(17)6(16)3-13/h5-9,13,15-17,20H,2-3H2,1H3,(H,12,14)(H,18,19)/t5-,6+,7+,8+,9+,11+/m0/s1

>  <InChIKey>
SQVRNKJHWKZAKO-YRMXFSIDSA-N

>  <SMILES>
CC(=O)N[C@@H]1[C@H](C[C@@](O[C@H]1[C@@H]([C@@H](CO)O)O)(C(=O)O)O)O

$$$$
4HMG_SIA_C_329
  RCSB PDB01161513293D
Coordinates from PDB:4HMG:C:329 Model:1 without hydrogens
 21 21  0  0  0  0            999 V2000
   -6.6410   62.5410  -17.5320   C 0  0  0  0  0  0  0  0  0  0  0  0
   -7.5400   63.7550  -17.2130   C 0  0  0  0  0  0  0  0  0  0  0  0
   -9.0000   63.2820  -17.0890   C 0  0  0  0  0  0  0  0  0  0  0  0
   -9.2700   62.6140  -15.7380   C 0  0  0  0  0  0  0  0  0  0  0  0
   -8.9450   63.6180  -14.6090   C 0  0  0  0  0  0  0  0  0  0  0  0
   -7.4390   63.9020  -14.7270   C 0  0  0  0  0  0  0  0  0  0  0  0
   -6.8340   64.8790  -13.7120   C 0  0  0  0  0  0  0  0  0  0  0  0
   -5.3030   65.0010  -13.9680   C 0  0  0  0  0  0  0  0  0  0  0  0
   -4.6110   65.9330  -12.9610   C 0  0  0  0  0  0  0  0  0  0  0  0
   -9.6940   63.6020  -12.2750   C 0  0  0  0  0  0  0  0  0  0  0  0
  -10.1730   62.7840  -11.0940   C 0  0  0  0  0  0  0  0  0  0  0  0
   -9.3530   62.9550  -13.3790   N 0  0  0  0  0  0  0  0  0  0  0  0
   -5.9600   61.9850  -16.6790   O 0  0  0  0  0  0  0  0  0  0  0  0
   -6.6310   62.0950  -18.6760   O 0  0  0  0  0  0  0  0  0  0  0  0
   -7.4060   64.6710  -18.2720   O 0  0  0  0  0  0  0  0  0  0  0  0
  -10.6200   62.1520  -15.6150   O 0  0  0  0  0  0  0  0  0  0  0  0
   -7.1410   64.4490  -16.0280   O 0  0  0  0  0  0  0  0  0  0  0  0
   -7.4630   66.1360  -13.8470   O 0  0  0  0  0  0  0  0  0  0  0  0
   -4.6700   63.7400  -13.8800   O 0  0  0  0  0  0  0  0  0  0  0  0
   -3.2210   65.6750  -13.0000   O 0  0  0  0  0  0  0  0  0  0  0  0
   -9.5730   64.8190  -12.2020   O 0  0  0  0  0  0  0  0  0  0  0  0
  1  2  1  0  0  0  0
  1 13  2  0  0  0  0
  1 14  1  0  0  0  0
  2  3  1  0  0  0  0
  2 15  1  0  0  0  0
  2 17  1  0  0  0  0
  3  4  1  0  0  0  0
  4  5  1  0  0  0  0
  4 16  1  0  0  0  0
  5  6  1  0  0  0  0
  5 12  1  0  0  0  0
  6  7  1  0  0  0  0
  6 17  1  0  0  0  0
  7  8  1  0  0  0  0
  7 18  1  0  0  0  0
  8  9  1  0  0  0  0
  8 19  1  0  0  0  0
  9 20  1  0  0  0  0
 10 11  1  0  0  0  0
 10 12  1  0  0  0  0
 10 21  2  0  0  0  0
A    1
C1
A    2
C2
A    3
C3
A    4
C4
A    5
C5
A    6
C6
A    7
C7
A    8
C8
A    9
C9
A   10
C10
A   11
C11
A   12
N5
A   13
O1A
A   14
O1B
A   15
O2
A   16
O4
A   17
O6
A   18
O7
A   19
O8
A   20
O9
A   21
O10
M  END
>  <InstanceId>
4HMG_SIA_C_329

>  <ChemCompId>
SIA

>  <PdbId>
4HMG

>  <ChainId>
C

>  <ResidueNumber>
329

>  <InsertionCode>


>  <Model>
1

>  <AltIds>


>  <MissingHeavyAtoms>
0

>  <ObservedFormula>
C11 N O9

>  <Name>
O-SIALIC ACID

>  <SystematicName>
(2R,4S,5R,6R)-5-acetamido-2,4-dihydroxy-6-[(1R,2R)-1,2,3-trihydroxypropyl]oxane-2-carboxylic acid

>  <Synonyms>


>  <Type>
NON-POLYMER

>  <Formula>
C11 H19 N O9

>  <MolecularWeight>
309.27

>  <ModifiedDate>
2011-06-04

>  <Parent>


>  <OneLetterCode>


>  <SubcomponentList>


>  <AmbiguousFlag>
N

>  <InChI>
InChI=1S/C11H19NO9/c1-4(14)12-7-5(15)2-11(20,10(18)19)21-9(7)8(17)6(16)3-13/h5-9,13,15-17,20H,2-3H2,1H3,(H,12,14)(H,18,19)/t5-,6+,7+,8+,9+,11+/m0/s1

>  <InChIKey>
SQVRNKJHWKZAKO-YRMXFSIDSA-N

>  <SMILES>
CC(=O)N[C@@H]1[C@H](C[C@@](O[C@H]1[C@@H]([C@@H](CO)O)O)(C(=O)O)O)O

$$$$
4HMG_SIA_E_329
  RCSB PDB01161513293D
Coordinates from PDB:4HMG:E:329 Model:1 without hydrogens
 21 21  0  0  0  0            999 V2000
   25.0000   91.0590    1.2700   C 0  0  0  0  0  0  0  0  0  0  0  0
   23.7630   91.8270    0.7500   C 0  0  0  0  0  0  0  0  0  0  0  0
   24.0480   92.3520   -0.6750   C 0  0  0  0  0  0  0  0  0  0  0  0
   23.9200   91.2560   -1.7220   C 0  0  0  0  0  0  0  0  0  0  0  0
   22.4980   90.6710   -1.6540   C 0  0  0  0  0  0  0  0  0  0  0  0
   22.3610   90.0380   -0.2580   C 0  0  0  0  0  0  0  0  0  0  0  0
   21.0240   89.3680    0.0890   C 0  0  0  0  0  0  0  0  0  0  0  0
   21.1020   88.7590    1.5150   C 0  0  0  0  0  0  0  0  0  0  0  0
   19.8120   88.0360    1.9190   C 0  0  0  0  0  0  0  0  0  0  0  0
   21.2790   89.3790   -3.3530   C 0  0  0  0  0  0  0  0  0  0  0  0
   21.3470   88.4370   -4.5400   C 0  0  0  0  0  0  0  0  0  0  0  0
   22.4150   89.7260   -2.7610   N 0  0  0  0  0  0  0  0  0  0  0  0
   25.0530   89.8360    1.2890   O 0  0  0  0  0  0  0  0  0  0  0  0
   25.9650   91.7100    1.6650   O 0  0  0  0  0  0  0  0  0  0  0  0
   23.5460   92.8980    1.6440   O 0  0  0  0  0  0  0  0  0  0  0  0
   24.2020   91.7190   -3.0390   O 0  0  0  0  0  0  0  0  0  0  0  0
   22.5730   91.0360    0.7560   O 0  0  0  0  0  0  0  0  0  0  0  0
   19.9880   90.3220    0.0260   O 0  0  0  0  0  0  0  0  0  0  0  0
   22.1590   87.8240    1.6120   O 0  0  0  0  0  0  0  0  0  0  0  0
   20.1220   87.1800    2.9950   O 0  0  0  0  0  0  0  0  0  0  0  0
   20.2020   89.7750   -2.9230   O 0  0  0  0  0  0  0  0  0  0  0  0
  1  2  1  0  0  0  0
  1 13  2  0  0  0  0
  1 14  1  0  0  0  0
  2  3  1  0  0  0  0
  2 15  1  0  0  0  0
  2 17  1  0  0  0  0
  3  4  1  0  0  0  0
  4  5  1  0  0  0  0
  4 16  1  0  0  0  0
  5  6  1  0  0  0  0
  5 12  1  0  0  0  0
  6  7  1  0  0  0  0
  6 17  1  0  0  0  0
  7  8  1  0  0  0  0
  7 18  1  0  0  0  0
  8  9  1  0  0  0  0
  8 19  1  0  0  0  0
  9 20  1  0  0  0  0
 10 11  1  0  0  0  0
 10 12  1  0  0  0  0
 10 21  2  0  0  0  0
A    1
C1
A    2
C2
A    3
C3
A    4
C4
A    5
C5
A    6
C6
A    7
C7
A    8
C8
A    9
C9
A   10
C10
A   11
C11
A   12
N5
A   13
O1A
A   14
O1B
A   15
O2
A   16
O4
A   17
O6
A   18
O7
A   19
O8
A   20
O9
A   21
O10
M  END
>  <InstanceId>
4HMG_SIA_E_329

>  <ChemCompId>
SIA

>  <PdbId>
4HMG

>  <ChainId>
E

>  <ResidueNumber>
329

>  <InsertionCode>


>  <Model>
1

>  <AltIds>


>  <MissingHeavyAtoms>
0

>  <ObservedFormula>
C11 N O9

>  <Name>
O-SIALIC ACID

>  <SystematicName>
(2R,4S,5R,6R)-5-acetamido-2,4-dihydroxy-6-[(1R,2R)-1,2,3-trihydroxypropyl]oxane-2-carboxylic acid

>  <Synonyms>


>  <Type>
NON-POLYMER

>  <Formula>
C11 H19 N O9

>  <MolecularWeight>
309.27

>  <ModifiedDate>
2011-06-04

>  <Parent>


>  <OneLetterCode>


>  <SubcomponentList>


>  <AmbiguousFlag>
N

>  <InChI>
InChI=1S/C11H19NO9/c1-4(14)12-7-5(15)2-11(20,10(18)19)21-9(7)8(17)6(16)3-13/h5-9,13,15-17,20H,2-3H2,1H3,(H,12,14)(H,18,19)/t5-,6+,7+,8+,9+,11+/m0/s1

>  <InChIKey>
SQVRNKJHWKZAKO-YRMXFSIDSA-N

>  <SMILES>
CC(=O)N[C@@H]1[C@H](C[C@@](O[C@H]1[C@@H]([C@@H](CO)O)O)(C(=O)O)O)O

$$$$
