REMARK  5 active torsions:
REMARK  status: ('A' for Active; 'I' for Inactive)
REMARK    1  A    between atoms: C23_7  and  C22_8 
REMARK    2  A    between atoms: C22_8  and  C21_9 
REMARK       I    between atoms: C21_9  and  N20_11 
REMARK       I    between atoms: N20_11  and  C19_13 
REMARK       I    between atoms: C19_13  and  N18_15 
REMARK    3  A    between atoms: N18_15  and  C14_17 
REMARK    4  A    between atoms: C11_23  and  O10_24 
REMARK    5  A    between atoms: O10_24  and  C6_25 
ROOT
HETATM    1  F31 320 A2001      -1.096  -1.049  56.225  1.00 43.83    -0.206 F 
HETATM    2  C28 320 A2001      -1.105  -0.183  55.219  1.00 39.54     0.116 A 
HETATM    3  C29 320 A2001      -2.163   0.824  55.127  1.00 35.95     0.043 A 
HETATM    4  C30 320 A2001      -2.080   1.678  54.092  1.00 34.72     0.011 A 
HETATM    5  C27 320 A2001      -0.100  -0.270  54.328  1.00 38.24     0.043 A 
HETATM    6  C26 320 A2001      -0.067   0.682  53.242  1.00 36.73     0.011 A 
HETATM    7  C23 320 A2001      -0.966   1.606  53.085  1.00 35.49    -0.049 A 
ENDROOT
BRANCH   7   8
HETATM    8  C22 320 A2001      -0.874   2.594  51.887  1.00 35.81     0.141 C 
BRANCH   8   9
HETATM    9  C21 320 A2001      -0.609   3.975  52.560  1.00 37.94     0.229 C 
HETATM   10  O25 320 A2001      -0.200   4.199  53.747  1.00 38.88    -0.273 OA
HETATM   11  N20 320 A2001      -0.894   5.148  51.854  1.00 39.35    -0.279 N 
HETATM   12  C19 320 A2001      -0.400   6.358  52.153  1.00 41.90     0.327 C 
HETATM   13  H20 320 A2001      -1.523   5.078  51.054  1.00  0.00     0.173 HD
HETATM   14  O24 320 A2001      -0.543   7.167  51.269  1.00 43.58    -0.247 OA
HETATM   15  N18 320 A2001       0.232   6.552  53.387  1.00 43.46    -0.309 N 
HETATM   16  H18 320 A2001       0.635   5.733  53.842  1.00  0.00     0.170 HD
BRANCH  15  17
HETATM   17  C14 320 A2001       0.357   7.797  54.055  1.00 41.86     0.039 A 
HETATM   18  C15 320 A2001       0.049   8.974  53.260  1.00 42.55     0.074 A 
HETATM   19  C16 320 A2001       0.129  10.189  53.857  1.00 43.81     0.152 A 
HETATM   20  F17 320 A2001      -0.176  11.371  53.147  1.00 46.20    -0.203 F 
HETATM   21  C11 320 A2001       0.567  10.274  55.286  1.00 38.84     0.114 A 
HETATM   22  C12 320 A2001       0.858   9.128  55.988  1.00 39.11     0.043 A 
HETATM   23  C13 320 A2001       0.735   7.870  55.361  1.00 40.13     0.032 A 
BRANCH  21  24
HETATM   24  O10 320 A2001       0.631  11.675  55.767  1.00 34.17    -0.307 OA
BRANCH  24  25
HETATM   25  C6  320 A2001      -0.450  12.034  56.679  1.00 33.11     0.091 A 
HETATM   26  C5  320 A2001      -1.750  11.644  56.531  1.00 32.19     0.055 A 
HETATM   27  C4  320 A2001      -2.732  12.056  57.534  1.00 30.74     0.092 A 
HETATM   28  N3  320 A2001      -2.326  12.795  58.514  1.00 28.07    -0.352 N 
HETATM   29  C2  320 A2001      -1.066  13.213  58.689  1.00 30.08     0.114 A 
HETATM   30  H3  320 A2001      -3.018  13.081  59.206  1.00  0.00     0.166 HD
HETATM   31  C1  320 A2001      -0.137  12.855  57.818  1.00 32.58     0.039 A 
HETATM   32  N9  320 A2001      -0.493  14.015  59.741  1.00 32.28    -0.372 N 
HETATM   33  C7  320 A2001       1.162  13.424  58.248  1.00 33.28     0.010 A 
HETATM   34  C8  320 A2001       0.931  14.105  59.425  1.00 33.48     0.149 A 
HETATM   35  H9  320 A2001      -0.978  14.431  60.536  1.00  0.00     0.161 HD
ENDBRANCH  24  25
ENDBRANCH  21  24
ENDBRANCH  15  17
ENDBRANCH   8   9
ENDBRANCH   7   8
TORSDOF 5
