REMARK  5 active torsions:
REMARK  status: ('A' for Active; 'I' for Inactive)
REMARK    1  A    between atoms: C6_6  and  C7_7 
REMARK    2  A    between atoms: C8_8  and  C9_9 
REMARK    3  A    between atoms: C10_10  and  C11_11 
REMARK    4  A    between atoms: C12_12  and  C13_13 
REMARK    5  A    between atoms: C14_14  and  C15_15 
ROOT
HETATM    1  C1  REA A 200       5.092   2.427 -10.794  1.00 50.77    -0.020 C 
HETATM    2  C2  REA A 200       6.079   1.239 -10.879  1.00 50.77     0.014 C 
HETATM    3  C3  REA A 200       7.457   1.588 -11.340  1.00 50.77     0.005 C 
HETATM    4  C4  REA A 200       8.109   2.616 -10.479  1.00 50.77     0.034 C 
HETATM    5  C5  REA A 200       7.171   3.770 -10.104  1.00 50.77    -0.077 C 
HETATM    6  C6  REA A 200       5.809   3.664 -10.159  1.00 50.77    -0.048 C 
HETATM    7  C16 REA A 200       3.907   2.000  -9.919  1.00 50.77     0.020 C 
HETATM    8  C17 REA A 200       4.582   2.798 -12.213  1.00 50.77     0.020 C 
HETATM    9  C18 REA A 200       7.980   4.939  -9.536  1.00 50.77     0.044 C 
ENDROOT
BRANCH   6  10
HETATM   10  C7  REA A 200       4.867   4.741  -9.787  1.00 27.93     0.009 C 
HETATM   11  C8  REA A 200       5.009   5.685  -8.849  1.00 27.93     0.007 C 
BRANCH  11  12
HETATM   12  C9  REA A 200       4.049   6.712  -8.512  1.00 27.93    -0.062 C 
HETATM   13  C19 REA A 200       2.716   6.801  -9.266  1.00 27.93     0.048 C 
HETATM   14  C10 REA A 200       4.383   7.602  -7.555  1.00 27.93     0.007 C 
BRANCH  14  15
HETATM   15  C11 REA A 200       3.513   8.670  -7.105  1.00 27.93     0.001 C 
HETATM   16  C12 REA A 200       3.962   9.509  -6.167  1.00 27.93     0.007 C 
BRANCH  16  17
HETATM   17  C13 REA A 200       3.164  10.592  -5.637  1.00 27.93    -0.056 C 
HETATM   18  C14 REA A 200       3.703  11.399  -4.689  1.00 27.93     0.091 C 
HETATM   19  C20 REA A 200       1.730  10.778  -6.162  1.00 27.93     0.048 C 
BRANCH  18  20
HETATM   20  C15 REA A 200       3.071  12.543  -4.016  1.00 27.93     0.199 C 
HETATM   21  O1  REA A 200       2.524  13.433  -4.704  1.00 27.93    -0.644 OA
HETATM   22  O2  REA A 200       3.090  12.602  -2.766  1.00 27.93    -0.644 OA
ENDBRANCH  18  20
ENDBRANCH  16  17
ENDBRANCH  14  15
ENDBRANCH  11  12
ENDBRANCH   6  10
TORSDOF 5
