REMARK  5 active torsions:
REMARK  status: ('A' for Active; 'I' for Inactive)
REMARK    1  A    between atoms: C11_11  and  C20_20 
REMARK    2  A    between atoms: C12_12  and  N23_24 
REMARK    3  A    between atoms: C13_13  and  O27_30 
REMARK    4  A    between atoms: C14_14  and  O27_30 
REMARK       I    between atoms: C18_18  and  N24_26 
REMARK    5  A    between atoms: C18_18  and  C20_20 
REMARK       I    between atoms: C19_19  and  N24_26 
REMARK       I    between atoms: C19_19  and  N23_24 
ROOT
HETATM    1  C1  319 A2001       0.114   1.053  52.675  1.00 37.19     0.011 A 
HETATM    2  C2  319 A2001      -2.030   1.669  53.684  1.00 37.68     0.011 A 
HETATM    3  C5  319 A2001       0.213  -0.013  53.553  1.00 37.41     0.043 A 
HETATM    4  C6  319 A2001      -1.921   0.598  54.572  1.00 38.95     0.043 A 
HETATM    5  C11 319 A2001      -1.010   1.891  52.732  1.00 38.65    -0.049 A 
HETATM    6  C15 319 A2001      -0.798  -0.231  54.488  1.00 39.08     0.116 A 
HETATM    7  F28 319 A2001      -0.681  -1.265  55.325  1.00 41.86    -0.206 F 
ENDROOT
BRANCH   5   8
HETATM    8  C20 319 A2001      -1.103   3.038  51.784  1.00 37.94     0.141 C 
BRANCH   8   9
HETATM    9  C18 319 A2001      -0.644   4.308  52.461  1.00 39.74     0.229 C 
HETATM   10  N24 319 A2001      -0.648   5.356  51.552  1.00 41.14    -0.279 N 
HETATM   11  C19 319 A2001      -0.105   6.613  51.741  1.00 40.87     0.327 C 
HETATM   12  H24 319 A2001      -1.097   5.181  50.653  1.00  0.00     0.173 HD
HETATM   13  N23 319 A2001       0.449   6.803  52.992  1.00 41.50    -0.309 N 
HETATM   14  O26 319 A2001      -0.158   7.426  50.829  1.00 44.03    -0.247 OA
HETATM   15  H23 319 A2001       0.810   5.983  53.479  1.00  0.00     0.170 HD
HETATM   16  O25 319 A2001       0.010   4.322  53.488  1.00 39.56    -0.273 OA
BRANCH  13  17
HETATM   17  C12 319 A2001       0.552   8.048  53.644  1.00 39.30     0.039 A 
HETATM   18  C3  319 A2001       0.919   8.066  54.999  1.00 35.23     0.032 A 
HETATM   19  C4  319 A2001       1.035   9.286  55.669  1.00 35.24     0.043 A 
HETATM   20  C13 319 A2001       0.764  10.483  55.004  1.00 36.87     0.114 A 
HETATM   21  C16 319 A2001       0.391  10.457  53.660  1.00 41.27     0.152 A 
HETATM   22  F29 319 A2001       0.117  11.594  52.989  1.00 42.67    -0.203 F 
HETATM   23  C8  319 A2001       0.292   9.247  52.984  1.00 40.33     0.074 A 
BRANCH  20  24
HETATM   24  O27 319 A2001       0.860  11.692  55.657  1.00 35.73    -0.308 OA
BRANCH  24  25
HETATM   25  C14 319 A2001      -0.191  12.054  56.490  1.00 34.26     0.080 A 
HETATM   26  C9  319 A2001       0.104  12.981  57.491  1.00 34.97     0.082 A 
HETATM   27  C17 319 A2001      -0.909  13.403  58.363  1.00 36.07     0.118 A 
HETATM   28  N21 319 A2001      -2.175  12.928  58.264  1.00 37.36    -0.354 N 
HETATM   29  N22 319 A2001      -0.602  14.345  59.377  1.00 34.85    -0.083 NA
HETATM   30  C10 319 A2001      -2.436  12.023  57.286  1.00 36.29     0.092 A 
HETATM   31  H21 319 A2001      -2.907  13.240  58.903  1.00  0.00     0.166 HD
HETATM   32  C7  319 A2001      -1.492  11.564  56.384  1.00 35.26     0.054 A 
ENDBRANCH  24  25
ENDBRANCH  20  24
ENDBRANCH  13  17
ENDBRANCH   8   9
ENDBRANCH   5   8
TORSDOF 5
