REMARK  6 active torsions:
REMARK  status: ('A' for Active; 'I' for Inactive)
REMARK    1  A    between atoms: C2_3  and  N33_37 
REMARK    2  A    between atoms: C4_5  and  O5_6 
REMARK    3  A    between atoms: O5_6  and  C6_7 
REMARK    4  A    between atoms: N13_14  and  C14_16 
REMARK    5  A    between atoms: C15_17  and  C20_23 
REMARK       I    between atoms: C20_23  and  N22_25 
REMARK    6  A    between atoms: N22_25  and  C23_27 
ROOT
HETATM    1  N1  L8V A   1      -1.080  12.667  59.405  1.00 24.50    -0.353 N 
HETATM    2  H1  L8V A   1      -1.775  13.006  60.070  1.00  0.00     0.166 HD
HETATM    3  C2  L8V A   1       0.164  13.189  59.451  1.00 23.19     0.101 A 
HETATM    4  C3  L8V A   1       1.145  12.751  58.553  1.00 22.90     0.085 A 
HETATM    5  C4  L8V A   1       0.766  11.754  57.620  1.00 23.69     0.081 A 
HETATM    6  C30 L8V A   1      -1.447  11.716  58.519  1.00 24.35     0.092 A 
HETATM    7  C31 L8V A   1      -0.554  11.218  57.593  1.00 22.28     0.054 A 
ENDROOT
BRANCH   3   8
HETATM    8  N33 L8V A   1       0.399  14.141  60.399  1.00 18.52    -0.385 N 
HETATM    9 2H33 L8V A   1       1.339  14.535  60.434  1.00  0.00     0.157 HD
HETATM   10 1H33 L8V A   1      -0.316  14.460  61.053  1.00  0.00     0.157 HD
ENDBRANCH   3   8
BRANCH   5  11
HETATM   11  O5  L8V A   1       1.784  11.341  56.735  1.00 25.55    -0.308 OA
BRANCH  11  12
HETATM   12  C6  L8V A   1       1.648  10.122  56.055  1.00 26.80     0.114 A 
HETATM   13  C11 L8V A   1       1.261  10.118  54.706  1.00 28.57     0.152 A 
HETATM   14  F12 L8V A   1       1.022  11.260  54.073  1.00 31.60    -0.203 F 
HETATM   15  C10 L8V A   1       1.113   8.941  53.978  1.00 26.45     0.074 A 
HETATM   16  C9  L8V A   1       1.351   7.718  54.608  1.00 25.10     0.036 A 
HETATM   17  N13 L8V A   1       1.230   6.530  53.984  1.00 28.35    -0.342 N 
HETATM   18  C8  L8V A   1       1.739   7.671  55.957  1.00 23.18     0.032 A 
HETATM   19  H13 L8V A   1       1.440   5.729  54.580  1.00  0.00     0.167 HD
HETATM   20  C7  L8V A   1       1.891   8.867  56.685  1.00 24.67     0.043 A 
BRANCH  17  21
HETATM   21  C14 L8V A   1       0.882   6.193  52.714  1.00 31.39     0.121 A 
HETATM   22  C15 L8V A   1       0.476   4.870  52.494  1.00 30.73     0.076 A 
HETATM   23  C16 L8V A   1       0.121   4.536  51.173  1.00 28.31     0.022 A 
HETATM   24  C17 L8V A   1       0.157   5.447  50.117  1.00 27.99     0.018 A 
HETATM   25  C18 L8V A   1       0.575   6.742  50.439  1.00 31.31     0.090 A 
HETATM   26  N19 L8V A   1       0.926   7.101  51.700  1.00 32.55    -0.351 N 
HETATM   27  H19 L8V A   1       1.225   8.058  51.890  1.00  0.00     0.166 HD
BRANCH  22  28
HETATM   28  C20 L8V A   1       0.426   3.878  53.583  1.00 29.80     0.260 C 
HETATM   29  N22 L8V A   1       0.068   2.632  53.207  1.00 26.81    -0.320 N 
HETATM   30  H22 L8V A   1      -0.143   2.445  52.227  1.00  0.00     0.169 HD
HETATM   31  O21 L8V A   1       0.686   4.131  54.762  1.00 29.80    -0.267 OA
BRANCH  29  32
HETATM   32  C23 L8V A   1      -0.017   1.611  54.122  1.00 26.60     0.074 A 
HETATM   33  C24 L8V A   1      -1.035   1.551  55.134  1.00 23.26     0.036 A 
HETATM   34  C25 L8V A   1      -1.053   0.456  56.048  1.00 24.98     0.044 A 
HETATM   35  C26 L8V A   1      -0.051  -0.553  55.924  1.00 26.69     0.119 A 
HETATM   36  C27 L8V A   1       0.943  -0.519  54.957  1.00 25.89     0.086 A 
HETATM   37  F29 L8V A   1       0.009  -1.610  56.730  1.00 29.74    -0.206 F 
HETATM   38  C28 L8V A   1       0.943   0.562  54.072  1.00 28.15     0.146 A 
HETATM   39  F32 L8V A   1       1.909   0.570  53.152  1.00 30.95    -0.204 F 
ENDBRANCH  29  32
ENDBRANCH  22  28
ENDBRANCH  17  21
ENDBRANCH  11  12
ENDBRANCH   5  11
TORSDOF 6
