1LIF_STE_A_132
  RCSB PDB01141513213D
Coordinates from PDB:1LIF:A:132 Model:1 without hydrogens
 20 19  0  0  0  0            999 V2000
  -45.2260   66.9040   -6.4600   C 0  0  0  0  0  0  0  0  0  0  0  0
  -45.7840   65.8820   -6.1130   O 0  0  0  0  0  0  0  0  0  0  0  0
  -44.0990   66.8870   -6.9470   O 0  0  0  0  0  0  0  0  0  0  0  0
  -45.9730   68.2180   -6.3270   C 0  0  0  0  0  0  0  0  0  0  0  0
  -45.2850   69.1570   -5.3570   C 0  0  0  0  0  0  0  0  0  0  0  0
  -46.0060   70.4770   -5.2830   C 0  0  0  0  0  0  0  0  0  0  0  0
  -45.9110   71.1530   -6.6320   C 0  0  0  0  0  0  0  0  0  0  0  0
  -46.3570   72.5790   -6.4720   C 0  0  0  0  0  0  0  0  0  0  0  0
  -47.8420   72.7080   -6.2770   C 0  0  0  0  0  0  0  0  0  0  0  0
  -48.5270   72.7230   -7.6090   C 0  0  0  0  0  0  0  0  0  0  0  0
  -49.9800   72.8910   -7.2700   C 0  0  0  0  0  0  0  0  0  0  0  0
  -50.8130   72.6800   -8.5060   C 0  0  0  0  0  0  0  0  0  0  0  0
  -50.6070   71.3040   -9.1060   C 0  0  0  0  0  0  0  0  0  0  0  0
  -51.4760   71.2830  -10.3470   C 0  0  0  0  0  0  0  0  0  0  0  0
  -51.1350   70.1170  -11.2780   C 0  0  0  0  0  0  0  0  0  0  0  0
  -52.1140   70.2380  -12.4250   C 0  0  0  0  0  0  0  0  0  0  0  0
  -51.8250   69.3240  -13.6010   C 0  0  0  0  0  0  0  0  0  0  0  0
  -52.9310   69.5050  -14.6440   C 0  0  0  0  0  0  0  0  0  0  0  0
  -53.0900   70.9420  -15.1310   C 0  0  0  0  0  0  0  0  0  0  0  0
  -54.2660   71.0100  -16.1070   C 0  0  0  0  0  0  0  0  0  0  0  0
  1  2  2  0  0  0  0
  1  3  1  0  0  0  0
  1  4  1  0  0  0  0
  4  5  1  0  0  0  0
  5  6  1  0  0  0  0
  6  7  1  0  0  0  0
  7  8  1  0  0  0  0
  8  9  1  0  0  0  0
  9 10  1  0  0  0  0
 10 11  1  0  0  0  0
 11 12  1  0  0  0  0
 12 13  1  0  0  0  0
 13 14  1  0  0  0  0
 14 15  1  0  0  0  0
 15 16  1  0  0  0  0
 16 17  1  0  0  0  0
 17 18  1  0  0  0  0
 18 19  1  0  0  0  0
 19 20  1  0  0  0  0
A    1
C1
A    2
O1
A    3
O2
A    4
C2
A    5
C3
A    6
C4
A    7
C5
A    8
C6
A    9
C7
A   10
C8
A   11
C9
A   12
C10
A   13
C11
A   14
C12
A   15
C13
A   16
C14
A   17
C15
A   18
C16
A   19
C17
A   20
C18
M  END
>  <InstanceId>
1LIF_STE_A_132

>  <ChemCompId>
STE

>  <PdbId>
1LIF

>  <ChainId>
A

>  <ResidueNumber>
132

>  <InsertionCode>


>  <Model>
1

>  <AltIds>


>  <MissingHeavyAtoms>
0

>  <ObservedFormula>
C18 O2

>  <Name>
STEARIC ACID

>  <SystematicName>
octadecanoic acid

>  <Synonyms>


>  <Type>
NON-POLYMER

>  <Formula>
C18 H36 O2

>  <MolecularWeight>
284.477

>  <ModifiedDate>
2011-06-04

>  <Parent>


>  <OneLetterCode>


>  <SubcomponentList>


>  <AmbiguousFlag>
N

>  <InChI>
InChI=1S/C18H36O2/c1-2-3-4-5-6-7-8-9-10-11-12-13-14-15-16-17-18(19)20/h2-17H2,1H3,(H,19,20)

>  <InChIKey>
QIQXTHQIDYTFRH-UHFFFAOYSA-N

>  <SMILES>
CCCCCCCCCCCCCCCCCC(=O)O

$$$$
