REMARK  5 active torsions:
REMARK  status: ('A' for Active; 'I' for Inactive)
REMARK    1  A    between atoms: C3_4  and  C21_30 
REMARK    2  A    between atoms: C6_7  and  N1_11 
REMARK    3  A    between atoms: N1_11  and  C11_15 
REMARK    4  A    between atoms: C12_18  and  N4_19 
REMARK    5  A    between atoms: N4_19  and  C16_24 
ROOT
HETATM    1  C1  T27 A 557      49.920 -25.039  38.401  1.00 29.53    -0.034 A 
HETATM    2  C3  T27 A 557      49.357 -27.139  39.629  1.00 25.95    -0.035 A 
HETATM    3  C4  T27 A 557      50.673 -27.581  39.439  1.00 26.06     0.020 A 
HETATM    4  C5  T27 A 557      51.633 -26.804  38.759  1.00 27.85    -0.034 A 
HETATM    5  C6  T27 A 557      51.256 -25.511  38.206  1.00 22.06     0.045 A 
HETATM    6  C7  T27 A 557      49.438 -23.701  37.861  1.00 30.29     0.050 C 
HETATM    7  C2  T27 A 557      48.975 -25.867  39.102  1.00 24.94     0.020 A 
HETATM    8  C8  T27 A 557      53.020 -27.393  38.614  1.00 23.50     0.050 C 
ENDROOT
BRANCH   5   9
HETATM    9  N1  T27 A 557      52.219 -24.743  37.509  1.00 19.93    -0.341 N 
HETATM   10  H1  T27 A 557      52.727 -24.015  38.011  1.00  0.00     0.167 HD
BRANCH   9  11
HETATM   11  C11 T27 A 557      52.499 -24.952  36.144  1.00 25.85     0.122 A 
HETATM   12  N3  T27 A 557      51.982 -26.078  35.581  1.00 22.76    -0.176 N 
HETATM   13  C12 T27 A 557      52.195 -26.349  34.296  1.00 26.30     0.684 A 
HETATM   14  H3  T27 A 557      51.427 -26.719  36.148  1.00  0.00     0.186 HD
HETATM   15  N2  T27 A 557      52.922 -25.523  33.487  1.00 25.29    -0.202 N 
HETATM   16  C9  T27 A 557      53.448 -24.380  34.061  1.00 23.08     0.110 A 
HETATM   17  H2  T27 A 557      53.071 -25.740  32.501  1.00  0.00     0.183 HD
HETATM   18  C10 T27 A 557      53.261 -24.038  35.410  1.00 25.43     0.066 A 
BRANCH  13  19
HETATM   19  N4  T27 A 557      51.661 -27.501  33.717  1.00 25.92    -0.192 N 
HETATM   20  H4  T27 A 557      51.728 -27.498  32.699  1.00  0.00     0.184 HD
BRANCH  19  21
HETATM   21  C16 T27 A 557      51.048 -28.673  34.221  1.00 27.55     0.049 A 
HETATM   22  C15 T27 A 557      50.883 -29.861  33.441  1.00 27.38     0.031 A 
HETATM   23  C14 T27 A 557      50.269 -31.013  33.977  1.00 23.67     0.025 A 
HETATM   24  C13 T27 A 557      49.799 -31.025  35.312  1.00 25.09     0.044 A 
HETATM   25  C19 T27 A 557      49.186 -32.213  35.845  1.00 29.50     0.099 C 
HETATM   26  C18 T27 A 557      49.940 -29.861  36.113  1.00 27.25     0.025 A 
HETATM   27  N5  T27 A 557      48.698 -33.181  36.272  1.00 26.72    -0.191 NA
HETATM   28  C17 T27 A 557      50.561 -28.702  35.570  1.00 21.87     0.031 A 
ENDBRANCH  19  21
ENDBRANCH  13  19
ENDBRANCH   9  11
ENDBRANCH   5   9
BRANCH   2  29
HETATM   29  C21 T27 A 557      48.385 -27.992  40.345  1.00 29.08     0.022 C 
HETATM   30  C20 T27 A 557      47.592 -27.591  41.333  1.00 35.39     0.094 C 
HETATM   31  C22 T27 A 557      46.698 -28.486  41.969  1.00 40.67     0.087 C 
HETATM   32  N6  T27 A 557      45.975 -29.216  42.500  1.00 44.98    -0.192 NA
ENDBRANCH   2  29
TORSDOF 5
