REMARK  7 active torsions:
REMARK  status: ('A' for Active; 'I' for Inactive)
REMARK    1  A    between atoms: C10_10  and  N27_28 
REMARK    2  A    between atoms: C11_11  and  N29_30 
REMARK    3  A    between atoms: C12_12  and  O32_34 
REMARK    4  A    between atoms: C13_13  and  O32_34 
REMARK    5  A    between atoms: C20_20  and  C23_23 
REMARK    6  A    between atoms: C21_21  and  O33_35 
REMARK       I    between atoms: C23_23  and  N29_30 
REMARK    7  A    between atoms: C25_25  and  O33_35 
ROOT
HETATM    1  C1  353 A2001       0.963   0.381  55.701  1.00 17.90     0.033 A 
HETATM    2  C2  353 A2001      -1.070   1.563  56.339  1.00 19.34     0.033 A 
HETATM    3  C5  353 A2001       0.725  -0.546  56.707  1.00 18.00     0.044 A 
HETATM    4  C6  353 A2001      -1.301   0.636  57.342  1.00 18.10     0.044 A 
HETATM    5  C10 353 A2001       0.059   1.434  55.516  1.00 21.00     0.042 A 
HETATM    6  C14 353 A2001      -0.403  -0.406  57.513  1.00 20.37     0.116 A 
HETATM    7  F34 353 A2001      -0.630  -1.299  58.481  1.00 28.50    -0.206 F 
ENDROOT
BRANCH   5   8
HETATM    8  N27 353 A2001       0.283   2.394  54.499  1.00 25.47    -0.289 N 
HETATM    9  C19 353 A2001       0.221   2.048  53.167  1.00 27.60     0.103 A 
HETATM   10  C18 353 A2001       0.435   2.952  52.210  1.00 27.11     0.055 A 
HETATM   11  C21 353 A2001       0.733   4.320  52.560  1.00 28.35     0.091 A 
HETATM   12  C20 353 A2001       0.807   4.730  53.841  1.00 27.15     0.134 A 
HETATM   13  C22 353 A2001       0.568   3.700  54.922  1.00 25.20     0.270 A 
HETATM   14  O30 353 A2001       0.624   4.017  56.106  1.00 24.35    -0.266 OA
BRANCH  11  15
HETATM   15  O33 353 A2001       0.929   5.159  51.487  1.00 30.98    -0.350 OA
BRANCH  15  16
HETATM   16  C25 353 A2001       1.048   4.466  50.241  1.00 32.30     0.171 C 
HETATM   17  C24 353 A2001       1.233   5.523  49.174  1.00 31.11     0.034 C 
ENDBRANCH  15  16
ENDBRANCH  11  15
BRANCH  12  18
HETATM   18  C23 353 A2001       1.123   6.182  54.130  1.00 27.64     0.264 C 
HETATM   19  O31 353 A2001       1.250   7.005  53.232  1.00 30.53    -0.267 OA
HETATM   20  N29 353 A2001       1.245   6.448  55.478  1.00 24.35    -0.323 N 
HETATM   21  H29 353 A2001       1.227   5.642  56.102  1.00  0.00     0.169 HD
BRANCH  20  22
HETATM   22  C11 353 A2001       1.391   7.703  56.086  1.00 23.46     0.038 A 
HETATM   23  C3  353 A2001       1.682   7.698  57.459  1.00 22.95     0.032 A 
HETATM   24  C4  353 A2001       1.843   8.892  58.150  1.00 24.04     0.043 A 
HETATM   25  C12 353 A2001       1.714  10.095  57.466  1.00 26.18     0.114 A 
HETATM   26  C15 353 A2001       1.422  10.103  56.103  1.00 27.26     0.152 A 
HETATM   27  F35 353 A2001       1.296  11.259  55.438  1.00 28.67    -0.203 F 
HETATM   28  C8  353 A2001       1.263   8.912  55.406  1.00 25.67     0.074 A 
BRANCH  25  29
HETATM   29  O32 353 A2001       1.864  11.281  58.133  1.00 26.55    -0.306 OA
BRANCH  29  30
HETATM   30  C13 353 A2001       0.778  11.687  58.889  1.00 28.26     0.102 A 
HETATM   31  C7  353 A2001      -0.519  11.230  58.673  1.00 26.37     0.056 A 
HETATM   32  C9  353 A2001      -1.518  11.712  59.501  1.00 28.12     0.092 A 
HETATM   33  N26 353 A2001      -1.317  12.596  60.505  1.00 28.70    -0.353 N 
HETATM   34  C17 353 A2001      -0.054  13.037  60.714  1.00 27.40     0.140 A 
HETATM   35  H26 353 A2001      -2.091  12.920  61.085  1.00  0.00     0.166 HD
HETATM   36  C16 353 A2001       1.013  12.599  59.922  1.00 33.15     0.108 A 
HETATM   37  N28 353 A2001       0.173  13.955  61.753  1.00 24.31    -0.081 NA
HETATM   38 CL36 353 A2001       2.615  13.176  60.211  1.00 45.30    -0.078 Cl
ENDBRANCH  29  30
ENDBRANCH  25  29
ENDBRANCH  20  22
ENDBRANCH  12  18
ENDBRANCH   5   8
TORSDOF 7
