REMARK
REMARK  10 active torsions:
REMARK  status: ('A' for Active; 'I' for Inactive)
REMARK    1  A    between atoms: C2_4  and  N1_3
REMARK    2  A    between atoms: C8_13  and  C2_4
REMARK    3  A    between atoms: C3_5  and  C18_23
REMARK    4  A    between atoms: O2_7  and  C4_6
REMARK    5  A    between atoms: C5_8  and  O3_9
REMARK    6  A    between atoms: C25_30  and  C6_10
REMARK    7  A    between atoms: N2_11  and  C7_12
REMARK    8  A    between atoms: C7_12  and  C32_37
REMARK    9  A    between atoms: C19_24  and  C18_23
REMARK   10  A    between atoms: C25_30  and  C26_31
ROOT
ATOM      1  C1  <1> d          -8.611  15.060  27.954  0.00  0.00     0.681 C
ATOM      2  O1  <1> d          -7.939  14.039  27.941  0.00  0.00    -0.613 OA
ATOM      3  N1  <1> d          -8.461  15.923  26.905  0.00  0.00    -0.450 N
ATOM      4  C3  <1> d          -8.627  17.388  27.011  0.00  0.00     0.205 C
ATOM      5  C4  <1> d         -10.029  17.910  27.298  0.00  0.00     0.261 C
ATOM      6  C5  <1> d         -10.461  17.645  28.733  0.00  0.00     0.148 C
ATOM      7  C6  <1> d         -10.657  16.152  28.964  0.00  0.00     0.189 C
ATOM      8  N2  <1> d          -9.461  15.294  29.004  0.00  0.00    -0.450 N
ENDROOT
BRANCH   3   9
ATOM      9  C2  <1> d          -7.854  15.351  25.696  0.00  0.00     0.253 C
BRANCH   9  10
ATOM     10  C8  <1> d          -8.381  15.730  24.336  0.00  0.00    -0.005 A
ATOM     11  C17 <1> d          -7.408  15.983  23.346  0.00  0.00    -0.038 A
ATOM     12  C16 <1> d          -7.828  16.192  22.022  0.00  0.00     0.036 A
ATOM     13  C15 <1> d          -6.860  16.403  21.006  0.00  0.00    -0.016 A
ATOM     14  C11 <1> d          -9.219  16.152  21.693  0.00  0.00     0.004 A
ATOM     15  C14 <1> d          -7.263  16.562  19.662  0.00  0.00     0.010 A
ATOM     16  C13 <1> d          -8.626  16.508  19.349  0.00  0.00    -0.000 A
ATOM     17  C12 <1> d          -9.608  16.304  20.349  0.00  0.00    -0.007 A
ATOM     18  C10 <1> d         -10.195  15.919  22.694  0.00  0.00     0.008 A
ATOM     19  C9  <1> d          -9.769  15.712  24.022  0.00  0.00    -0.015 A
ENDBRANCH   9  10
ENDBRANCH   3   9
BRANCH   4  20
ATOM     20  C18 <1> d          -7.476  17.972  27.894  0.00  0.00    -0.009 C
BRANCH  20  21
ATOM     21  C19 <1> d          -6.124  17.890  27.193  0.00  0.00     0.056 A
ATOM     22  C24 <1> d          -5.803  18.811  26.163  0.00  0.00    -0.044 A
ATOM     23  C23 <1> d          -4.607  18.660  25.432  0.00  0.00     0.026 A
ATOM     24  C22 <1> d          -3.730  17.585  25.723  0.00  0.00    -0.029 A
ATOM     25  C21 <1> d          -4.029  16.667  26.750  0.00  0.00     0.028 A
ATOM     26  C20 <1> d          -5.226  16.826  27.494  0.00  0.00    -0.030 A
ENDBRANCH  20  21
ENDBRANCH   4  20
BRANCH   5  27
ATOM     27  O2  <1> d          -9.929  19.274  26.998  0.00  0.00    -0.528 OA
ATOM     28  H5  <1> d          -9.892  19.779  27.814  0.00  0.00     0.316 HD
ENDBRANCH   5  27
BRANCH   8  29
ATOM     29  C7  <1> d          -9.271  14.491  30.215  0.00  0.00     0.248 C
BRANCH  29  30
ATOM     30  C32 <1> d          -9.374  15.148  31.571  0.00  0.00    -0.012 A
ATOM     31  C41 <1> d          -8.574  16.252  31.962  0.00  0.00    -0.020 A
ATOM     32  C40 <1> d          -8.605  16.691  33.288  0.00  0.00     0.004 A
ATOM     33  C39 <1> d          -9.455  16.028  34.212  0.00  0.00     0.007 A
ATOM     34  C34 <1> d         -10.272  14.926  33.800  0.00  0.00     0.030 A
ATOM     35  C38 <1> d          -9.540  16.475  35.553  0.00  0.00    -0.010 A
ATOM     36  C33 <1> d         -10.228  14.492  32.477  0.00  0.00    -0.035 A
ATOM     37  C35 <1> d         -11.156  14.282  34.709  0.00  0.00    -0.013 A
ATOM     38  C36 <1> d         -11.245  14.748  36.044  0.00  0.00     0.015 A
ATOM     39  C37 <1> d         -10.435  15.837  36.451  0.00  0.00     0.006 A
ENDBRANCH  29  30
ENDBRANCH   8  29
BRANCH   6  40
ATOM     40  O3  <1> d         -11.692  18.254  29.020  0.00  0.00    -0.535 OA
ATOM     41  H7  <1> d         -11.807  18.311  29.971  0.00  0.00     0.318 HD
ENDBRANCH   6  40
BRANCH   7  42
ATOM     42  C25 <1> d         -11.712  15.451  28.079  0.00  0.00     0.012 C
BRANCH  42  43
ATOM     43  C26 <1> d         -12.310  14.248  28.779  0.00  0.00     0.064 A
ATOM     44  C31 <1> d         -11.992  12.954  28.304  0.00  0.00    -0.036 A
ATOM     45  C30 <1> d         -12.529  11.814  28.944  0.00  0.00     0.035 A
ATOM     46  C29 <1> d         -13.374  11.982  30.058  0.00  0.00    -0.032 A
ATOM     47  C28 <1> d         -13.700  13.281  30.542  0.00  0.00     0.027 A
ATOM     48  C27 <1> d         -13.167  14.422  29.898  0.00  0.00    -0.058 A
ENDBRANCH  42  43
ENDBRANCH   7  42
TORSDOF 10
