REMARK  4 active torsions:
REMARK  status: ('A' for Active; 'I' for Inactive)
REMARK    1  A    between atoms: P1_1  and  O2_5 
REMARK    2  A    between atoms: O2_5  and  C1_6 
REMARK    3  A    between atoms: C1_6  and  C2_7 
REMARK    4  A    between atoms: C2_7  and  N1_8 
ROOT
HETATM    1  P1   PC H 223      49.373  57.064 -37.806  1.00  2.00     0.422 P 
HETATM    2  O1   PC H 223      49.937  57.016 -36.403  1.00  2.00    -0.617 OA
HETATM    3  O3   PC H 223      50.382  56.626 -38.816  1.00  2.00    -0.617 OA
HETATM    4  O4   PC H 223      47.999  56.513 -37.767  1.00  2.00    -0.617 OA
ENDROOT
BRANCH   1   5
HETATM    5  O2   PC H 223      49.305  58.670 -38.033  1.00  2.00    -0.281 OA
BRANCH   5   6
HETATM    6  C1   PC H 223      49.639  59.442 -36.883  1.00  2.00     0.210 C 
BRANCH   6   7
HETATM    7  C2   PC H 223      50.985  59.018 -36.282  1.00  2.00     0.262 C 
BRANCH   7   8
HETATM    8  N1   PC H 223      51.111  59.551 -34.867  1.00  2.00    -0.077 N 
HETATM    9  C3   PC H 223      50.011  59.064 -34.031  1.00  2.00     0.271 C 
HETATM   10  C4   PC H 223      52.471  59.176 -34.281  1.00  2.00     0.271 C 
HETATM   11  C5   PC H 223      51.025  61.060 -34.988  1.00  2.00     0.271 C 
ENDBRANCH   7   8
ENDBRANCH   6   7
ENDBRANCH   5   6
ENDBRANCH   1   5
TORSDOF 4
