1ULB_GUN_A_290
  RCSB PDB01141518523D
Coordinates from PDB:1ULB:A:290 Model:1 without hydrogens
 11 12  0  0  0  0            999 V2000
    2.9390   18.6780   25.7470   N 0  0  0  0  0  0  0  0  0  0  0  0
    2.6420   19.7880   26.5580   C 0  0  0  0  0  0  0  0  0  0  0  0
    1.7900   19.4970   27.5610   N 0  0  0  0  0  0  0  0  0  0  0  0
    1.5740   18.1210   27.3780   C 0  0  0  0  0  0  0  0  0  0  0  0
    0.7400   17.2820   28.1270   C 0  0  0  0  0  0  0  0  0  0  0  0
    0.0380   17.6050   29.0880   O 0  0  0  0  0  0  0  0  0  0  0  0
    0.7090   15.9810   27.6170   N 0  0  0  0  0  0  0  0  0  0  0  0
    1.4290   15.5910   26.5300   C 0  0  0  0  0  0  0  0  0  0  0  0
    1.3370   14.3080   26.1520   N 0  0  0  0  0  0  0  0  0  0  0  0
    2.2350   16.3870   25.8550   N 0  0  0  0  0  0  0  0  0  0  0  0
    2.2470   17.6290   26.3050   C 0  0  0  0  0  0  0  0  0  0  0  0
  1  2  1  0  0  0  0
  1 11  1  0  0  0  0
  2  3  2  0  0  0  0
  3  4  1  0  0  0  0
  4  5  1  0  0  0  0
  4 11  2  0  0  0  0
  5  6  2  0  0  0  0
  5  7  1  0  0  0  0
  7  8  1  0  0  0  0
  8  9  1  0  0  0  0
  8 10  2  0  0  0  0
 10 11  1  0  0  0  0
A    1
N9
A    2
C8
A    3
N7
A    4
C5
A    5
C6
A    6
O6
A    7
N1
A    8
C2
A    9
N2
A   10
N3
A   11
C4
M  END
>  <InstanceId>
1ULB_GUN_A_290

>  <ChemCompId>
GUN

>  <PdbId>
1ULB

>  <ChainId>
A

>  <ResidueNumber>
290

>  <InsertionCode>


>  <Model>
1

>  <AltIds>


>  <MissingHeavyAtoms>
0

>  <ObservedFormula>
C5 N5 O

>  <Name>
GUANINE

>  <SystematicName>
2-amino-1,9-dihydropurin-6-one

>  <Synonyms>


>  <Type>
NON-POLYMER

>  <Formula>
C5 H5 N5 O

>  <MolecularWeight>
151.126

>  <ModifiedDate>
2011-06-04

>  <Parent>


>  <OneLetterCode>


>  <SubcomponentList>


>  <AmbiguousFlag>
N

>  <InChI>
InChI=1S/C5H5N5O/c6-5-9-3-2(4(11)10-5)7-1-8-3/h1H,(H4,6,7,8,9,10,11)

>  <InChIKey>
UYTPUPDQBNUYGX-UHFFFAOYSA-N

>  <SMILES>
c1[nH]c2c(n1)C(=O)NC(=N2)N

$$$$
