REMARK  0 active torsions:
REMARK  status: ('A' for Active; 'I' for Inactive)
ROOT
HETATM    1  C1  CAM A 422      46.508  44.528  14.647  1.00 16.04     0.024 C 
HETATM    2  C2  CAM A 422      44.913  44.451  14.586  1.00 17.04     0.136 C 
HETATM    3  O   CAM A 422      44.197  44.497  15.571  1.00 17.69    -0.297 OA
HETATM    4  C3  CAM A 422      44.562  44.319  13.094  1.00 16.37     0.084 C 
HETATM    5  C4  CAM A 422      45.987  44.434  12.432  1.00 16.57     0.001 C 
HETATM    6  C5  CAM A 422      46.538  45.892  12.569  1.00 16.28     0.007 C 
HETATM    7  C6  CAM A 422      46.856  45.977  14.100  1.00 15.77     0.018 C 
HETATM    8  C7  CAM A 422      46.875  43.585  13.416  1.00 15.69    -0.029 C 
HETATM    9  C8  CAM A 422      46.482  42.074  13.565  1.00 15.46     0.016 C 
HETATM   10  C9  CAM A 422      48.396  43.529  13.036  1.00 16.20     0.016 C 
HETATM   11  C10 CAM A 422      47.083  44.219  16.031  1.00 15.15     0.024 C 
ENDROOT
TORSDOF 0
