REMARK  12 active torsions:
REMARK  status: ('A' for Active; 'I' for Inactive)
REMARK    1  A    between atoms: C1_1  and  C2_5 
REMARK    2  A    between atoms: C2A_4  and  CP1_6 
REMARK    3  A    between atoms: C2A_4  and  C2_5 
REMARK    4  A    between atoms: C2_5  and  O3_12 
REMARK    5  A    between atoms: O3_12  and  P3_13 
REMARK    6  A    between atoms: P3_13  and  C4_16 
REMARK    7  A    between atoms: C4_16  and  N5_18 
REMARK       I    between atoms: N5_18  and  C6_20 
REMARK    8  A    between atoms: C6_20  and  C7_22 
REMARK    9  A    between atoms: C7_22  and  N8_24 
REMARK       I    between atoms: N8_24  and  C9_26 
REMARK   10  A    between atoms: C9_26  and  O10_28 
REMARK   11  A    between atoms: O10_28  and  C11_29 
REMARK   12  A    between atoms: C11_29  and  C1X_30 
ROOT
HETATM    1  C1  ZAF A 309      44.381  21.762  33.787  1.00 12.55     0.204 C 
HETATM    2  O1A ZAF A 309      43.353  21.981  33.006  1.00 10.65    -0.646 OA
HETATM    3  O1B ZAF A 309      44.933  20.708  33.791  1.00 27.40    -0.646 OA
ENDROOT
BRANCH   1   4
HETATM    4  C2  ZAF A 309      44.786  22.860  34.625  1.00 22.10     0.237 C 
BRANCH   4   5
HETATM    5  O3  ZAF A 309      45.362  22.152  35.750  1.00 24.70    -0.294 OA
BRANCH   5   6
HETATM    6  P3  ZAF A 309      44.357  21.613  37.005  1.00 28.55     0.273 P 
HETATM    7  O3A ZAF A 309      43.195  20.768  36.420  1.00 17.70    -0.645 OA
HETATM    8  O3B ZAF A 309      43.957  22.825  37.875  1.00 22.00    -0.645 OA
BRANCH   6   9
HETATM    9  C4  ZAF A 309      45.316  20.607  38.043  1.00 13.35     0.201 C 
HETATM   10  C4A ZAF A 309      46.585  21.244  38.659  1.00 17.05     0.046 C 
BRANCH   9  11
HETATM   11  N5  ZAF A 309      45.796  19.498  37.293  1.00 22.80    -0.343 N 
HETATM   12  C6  ZAF A 309      45.357  18.241  37.432  1.00 27.05     0.241 C 
HETATM   13  O6  ZAF A 309      44.341  18.008  38.012  1.00 18.70    -0.271 OA
HETATM   14  H5  ZAF A 309      46.525  19.672  36.601  1.00  0.00     0.163 HD
BRANCH  12  15
HETATM   15  C7  ZAF A 309      46.197  17.237  36.846  1.00 24.25     0.174 C 
HETATM   16  C7A ZAF A 309      45.530  16.762  35.539  1.00  7.30     0.042 C 
BRANCH  15  17
HETATM   17  N8  ZAF A 309      46.515  16.143  37.699  1.00 27.75    -0.324 N 
HETATM   18  C9  ZAF A 309      47.236  16.168  38.822  1.00 21.50     0.365 C 
HETATM   19  O9  ZAF A 309      47.366  15.131  39.408  1.00 37.05    -0.238 OA
HETATM   20  H8  ZAF A 309      46.149  15.233  37.419  1.00  0.00     0.165 HD
BRANCH  18  21
HETATM   21  O10 ZAF A 309      47.782  17.310  39.216  1.00 30.55    -0.273 OA
BRANCH  21  22
HETATM   22  C11 ZAF A 309      48.962  17.233  39.976  1.00 22.30     0.159 C 
BRANCH  22  23
HETATM   23  C1X ZAF A 309      49.775  18.409  40.104  1.00 25.85    -0.014 A 
HETATM   24  C2X ZAF A 309      50.263  18.996  38.992  1.00  5.00     0.013 A 
HETATM   25  C3X ZAF A 309      51.030  20.100  39.089  1.00 21.65     0.001 A 
HETATM   26  C4X ZAF A 309      51.345  20.595  40.301  1.00 31.85     0.000 A 
HETATM   27  C5X ZAF A 309      50.860  20.008  41.411  1.00 16.40     0.001 A 
HETATM   28  C6X ZAF A 309      50.088  18.906  41.320  1.00 27.50     0.013 A 
ENDBRANCH  22  23
ENDBRANCH  21  22
ENDBRANCH  18  21
ENDBRANCH  15  17
ENDBRANCH  12  15
ENDBRANCH   9  11
ENDBRANCH   6   9
ENDBRANCH   5   6
ENDBRANCH   4   5
BRANCH   4  29
HETATM   29  C2A ZAF A 309      45.801  23.720  33.863  1.00 19.00     0.082 C 
BRANCH  29  30
HETATM   30  CP1 ZAF A 309      45.453  24.324  32.612  1.00 11.15    -0.055 A 
HETATM   31  CP6 ZAF A 309      45.673  23.649  31.463  1.00 34.95     0.007 A 
HETATM   32  CP5 ZAF A 309      45.380  24.210  30.269  1.00 30.40     0.001 A 
HETATM   33  CP4 ZAF A 309      44.827  25.443  30.222  1.00 16.85     0.000 A 
HETATM   34  CP3 ZAF A 309      44.594  26.114  31.370  1.00 40.75     0.001 A 
HETATM   35  CP2 ZAF A 309      44.930  25.572  32.561  1.00 19.95     0.007 A 
ENDBRANCH  29  30
ENDBRANCH   4  29
ENDBRANCH   1   4
TORSDOF 12
