REMARK  6 active torsions:
REMARK  status: ('A' for Active; 'I' for Inactive)
REMARK    1  A    between atoms: C1_1  and  O1_8 
REMARK    2  A    between atoms: C2_2  and  O2_9 
REMARK    3  A    between atoms: C3_3  and  O3_11 
REMARK    4  A    between atoms: C4_4  and  O4_13 
REMARK    5  A    between atoms: C5_5  and  C6_6 
REMARK    6  A    between atoms: C6_6  and  O6_16 
ROOT
HETATM    1  C1  MMA A 238      63.161  99.786  30.059  1.00 21.84     0.290 C 
HETATM    2  C2  MMA A 238      62.000  98.805  30.382  1.00 18.04     0.204 C 
HETATM    3  C3  MMA A 238      61.838  97.909  29.229  1.00 21.09     0.183 C 
HETATM    4  C4  MMA A 238      61.572  98.695  27.962  1.00 21.44     0.180 C 
HETATM    5  C5  MMA A 238      62.718  99.642  27.697  1.00 19.28     0.179 C 
HETATM    6  O5  MMA A 238      62.867 100.511  28.837  1.00 25.52    -0.349 OA
ENDROOT
BRANCH   1   7
HETATM    7  O1  MMA A 238      64.352  98.988  29.882  1.00 20.81    -0.363 OA
HETATM    8  C7  MMA A 238      65.473  99.808  29.695  1.00 23.96     0.204 C 
ENDBRANCH   1   7
BRANCH   2   9
HETATM    9  O2  MMA A 238      60.787  99.430  30.664  1.00 20.83    -0.388 OA
HETATM   10  H2  MMA A 238      60.892 100.009  31.410  1.00  0.00     0.210 HD
ENDBRANCH   2   9
BRANCH   3  11
HETATM   11  O3  MMA A 238      60.771  97.039  29.453  1.00 18.88    -0.390 OA
HETATM   12  H3  MMA A 238      60.938  96.546  30.248  1.00  0.00     0.210 HD
ENDBRANCH   3  11
BRANCH   5  13
HETATM   13  C6  MMA A 238      62.387 100.498  26.459  1.00 18.94     0.198 C 
BRANCH  13  14
HETATM   14  O6  MMA A 238      61.513 101.555  26.828  1.00 16.92    -0.398 OA
HETATM   15  H6  MMA A 238      61.309 102.083  26.065  1.00  0.00     0.209 HD
ENDBRANCH  13  14
ENDBRANCH   5  13
BRANCH   4  16
HETATM   16  O4  MMA A 238      61.484  97.725  26.940  1.00 18.51    -0.390 OA
HETATM   17  H4  MMA A 238      61.317  98.218  26.145  1.00  0.00     0.210 HD
ENDBRANCH   4  16
TORSDOF 6
