3PTB_BEN_A_1
  RCSB PDB01161501333D
Coordinates from PDB:3PTB:A:1 Model:1 without hydrogens
  9  9  0  0  0  0            999 V2000
   -1.8530   14.3110   16.6580   C 0  0  0  0  0  0  0  0  0  0  0  0
   -2.1070   15.6530   16.7580   C 0  0  0  0  0  0  0  0  0  0  0  0
   -1.7740   16.3410   17.9320   C 0  0  0  0  0  0  0  0  0  0  0  0
   -1.1750   15.6620   19.0050   C 0  0  0  0  0  0  0  0  0  0  0  0
   -0.9140   14.2950   18.8850   C 0  0  0  0  0  0  0  0  0  0  0  0
   -1.2570   13.6340   17.7080   C 0  0  0  0  0  0  0  0  0  0  0  0
   -2.1930   13.6270   15.4960   C 0  0  0  0  0  0  0  0  0  0  0  0
   -2.7970   14.2350   14.4910   N 0  0  0  0  0  0  0  0  0  0  0  0
   -1.7620   12.3910   15.3090   N 0  0  0  0  0  0  0  0  0  0  0  0
  1  2  2  0  0  0  0
  1  6  1  0  0  0  0
  1  7  1  0  0  0  0
  2  3  1  0  0  0  0
  3  4  2  0  0  0  0
  4  5  1  0  0  0  0
  5  6  2  0  0  0  0
  7  8  2  0  0  0  0
  7  9  1  0  0  0  0
A    1
C1
A    2
C2
A    3
C3
A    4
C4
A    5
C5
A    6
C6
A    7
C
A    8
N1
A    9
N2
M  END
>  <InstanceId>
3PTB_BEN_A_1

>  <ChemCompId>
BEN

>  <PdbId>
3PTB

>  <ChainId>
A

>  <ResidueNumber>
1

>  <InsertionCode>


>  <Model>
1

>  <AltIds>


>  <MissingHeavyAtoms>
0

>  <ObservedFormula>
C7 N2

>  <Name>
BENZAMIDINE

>  <SystematicName>
benzenecarboximidamide

>  <Synonyms>


>  <Type>
NON-POLYMER

>  <Formula>
C7 H8 N2

>  <MolecularWeight>
120.152

>  <ModifiedDate>
2011-06-04

>  <Parent>


>  <OneLetterCode>


>  <SubcomponentList>


>  <AmbiguousFlag>
N

>  <InChI>
InChI=1S/C7H8N2/c8-7(9)6-4-2-1-3-5-6/h1-5H,(H3,8,9)

>  <InChIKey>
PXXJHWLDUBFPOL-UHFFFAOYSA-N

>  <SMILES>
[H]/N=C(\c1ccccc1)/N

$$$$
