REMARK  4 active torsions:
REMARK  status: ('A' for Active; 'I' for Inactive)
REMARK    1  A    between atoms: O5'_1  and  C5'_3 
REMARK    2  A    between atoms: C5'_3  and  C4'_4 
REMARK    3  A    between atoms: C1'_6  and  N9_7 
REMARK    4  A    between atoms: C3'_23  and  O3'_24 
ROOT
HETATM    1  O5' 3D1 A 501       7.563  -0.510   2.912  1.00  8.72    -0.398 OA
HETATM    2  H5' 3D1 A 501       7.292   0.022   3.651  1.00  0.00     0.209 HD
ENDROOT
BRANCH   1   3
HETATM    3  C5' 3D1 A 501       8.561  -1.486   3.237  1.00  9.07     0.198 C 
BRANCH   3   4
HETATM    4  C4' 3D1 A 501       8.998  -2.344   2.046  1.00  9.32     0.176 C 
HETATM    5  O4' 3D1 A 501       7.898  -3.187   1.573  1.00 11.81    -0.356 OA
HETATM    6  C1' 3D1 A 501       8.161  -3.576   0.152  1.00 12.51     0.233 C 
HETATM    7  C2' 3D1 A 501       9.245  -2.651  -0.345  1.00  7.56     0.088 C 
HETATM    8  C3' 3D1 A 501       9.386  -1.572   0.772  1.00 11.19     0.153 C 
BRANCH   6   9
HETATM    9  N9  3D1 A 501       6.817  -3.422  -0.401  1.00  9.18    -0.300 N 
HETATM   10  C8  3D1 A 501       6.134  -2.244  -0.651  1.00  8.10     0.188 A 
HETATM   11  N7  3D1 A 501       4.896  -2.459  -1.042  1.00 11.63    -0.346 N 
HETATM   12  C5  3D1 A 501       4.777  -3.840  -1.052  1.00 12.16     0.122 A 
HETATM   13  H7  3D1 A 501       4.186  -1.767  -1.283  1.00  0.00     0.167 HD
HETATM   14  C6  3D1 A 501       3.682  -4.692  -1.349  1.00 12.40     0.131 A 
HETATM   15  C4  3D1 A 501       5.939  -4.455  -0.663  1.00 13.55     0.142 A 
HETATM   16  N6  3D1 A 501       2.437  -4.249  -1.571  1.00  5.84    -0.383 N 
HETATM   17  N1  3D1 A 501       3.927  -6.036  -1.348  1.00 12.53    -0.337 N 
HETATM   18  H62 3D1 A 501       2.254  -3.246  -1.572  1.00  0.00     0.157 HD
HETATM   19  H61 3D1 A 501       1.650  -4.861  -1.785  1.00  0.00     0.157 HD
HETATM   20  C2  3D1 A 501       5.126  -6.497  -0.940  1.00 13.76     0.183 A 
HETATM   21  H1  3D1 A 501       3.205  -6.688  -1.655  1.00  0.00     0.168 HD
HETATM   22  N3  3D1 A 501       6.184  -5.776  -0.570  1.00 12.34    -0.336 N 
HETATM   23  H3  3D1 A 501       7.069  -6.175  -0.256  1.00  0.00     0.168 HD
ENDBRANCH   6   9
BRANCH   8  24
HETATM   24  O3' 3D1 A 501      10.718  -1.098   0.844  1.00 11.77    -0.393 OA
HETATM   25  H3' 3D1 A 501      10.957  -0.622   0.058  1.00  0.00     0.210 HD
ENDBRANCH   8  24
ENDBRANCH   3   4
ENDBRANCH   1   3
TORSDOF 4
