REMARK  5 active torsions:
REMARK  status: ('A' for Active; 'I' for Inactive)
REMARK    1  A    between atoms: O5'_1  and  C5'_3 
REMARK    2  A    between atoms: C5'_3  and  C4'_4 
REMARK    3  A    between atoms: C3'_6  and  O3'_7 
REMARK    4  A    between atoms: N1'_10  and  C10_11 
REMARK    5  A    between atoms: C10_11  and  C9_12 
ROOT
HETATM    1  O5' DIH A 301      17.494  12.134  59.898  1.00 65.21    -0.400 OA
HETATM    2  H5' DIH A 301      18.352  11.900  59.564  1.00  0.00     0.209 HD
ENDROOT
BRANCH   1   3
HETATM    3  C5' DIH A 301      16.732  10.960  60.165  1.00 61.09     0.173 C 
BRANCH   3   4
HETATM    4  C4' DIH A 301      15.350  11.337  60.703  1.00 60.34     0.068 C 
HETATM    5  C3' DIH A 301      15.210  12.753  61.260  1.00 62.98     0.154 C 
HETATM    6  C2' DIH A 301      14.743  13.614  60.063  1.00 62.79     0.304 C 
HETATM    7  N1' DIH A 301      14.625  12.659  58.929  1.00 57.81     0.095 N 
HETATM    8  C6' DIH A 301      14.405  11.314  59.527  1.00 58.00     0.282 C 
BRANCH   5   9
HETATM    9  O3' DIH A 301      14.198  12.687  62.313  1.00 62.57    -0.393 OA
HETATM   10  H3' DIH A 301      14.485  12.158  63.048  1.00  0.00     0.210 HD
ENDBRANCH   5   9
BRANCH   7  11
HETATM   11  C10 DIH A 301      13.640  12.917  57.849  1.00 48.46     0.315 C 
BRANCH  11  12
HETATM   12  C9  DIH A 301      14.251  12.150  56.680  1.00 43.32     0.015 A 
HETATM   13  C4  DIH A 301      13.920  10.804  56.178  1.00 45.17     0.075 A 
HETATM   14  N3  DIH A 301      12.958   9.932  56.618  1.00 44.32    -0.350 N 
HETATM   15  C5  DIH A 301      14.767  10.526  55.112  1.00 45.24     0.128 A 
HETATM   16  C2  DIH A 301      12.820   8.781  55.987  1.00 42.70     0.184 A 
HETATM   17  H3  DIH A 301      12.364  10.167  57.413  1.00  0.00     0.166 HD
HETATM   18  N1  DIH A 301      13.619   8.436  54.960  1.00 44.73    -0.318 N 
HETATM   19  C6  DIH A 301      14.594   9.285  54.494  1.00 46.64     0.275 A 
HETATM   20  H1  DIH A 301      13.498   7.525  54.518  1.00  0.00     0.169 HD
HETATM   21  O6  DIH A 301      15.331   8.911  53.541  1.00 46.03    -0.266 OA
HETATM   22  N7  DIH A 301      15.606  11.606  54.958  1.00 44.66    -0.359 N 
HETATM   23  C8  DIH A 301      15.314  12.568  55.872  1.00 42.97     0.099 A 
HETATM   24  H7  DIH A 301      16.343  11.675  54.256  1.00  0.00     0.165 HD
ENDBRANCH  11  12
ENDBRANCH   7  11
ENDBRANCH   3   4
ENDBRANCH   1   3
TORSDOF 5
