4DFR_MTX_A_161
  RCSB PDB01161510043D
Coordinates from PDB:4DFR:A:161 Model:1 without hydrogens
 33 35  0  0  0  0            999 V2000
   22.9830   58.6670   24.4880   N 0  0  0  0  0  0  0  0  0  0  0  0
   23.4680   58.2150   23.2820   C 0  0  0  0  0  0  0  0  0  0  0  0
   24.7970   58.2230   23.2080   N 0  0  0  0  0  0  0  0  0  0  0  0
   22.7920   57.8190   22.2300   N 0  0  0  0  0  0  0  0  0  0  0  0
   21.4590   57.8030   22.0680   C 0  0  0  0  0  0  0  0  0  0  0  0
   20.8210   57.4400   21.0750   N 0  0  0  0  0  0  0  0  0  0  0  0
   20.9000   58.3040   23.3630   C 0  0  0  0  0  0  0  0  0  0  0  0
   19.5580   58.5140   23.3700   N 0  0  0  0  0  0  0  0  0  0  0  0
   18.9890   58.9820   24.4220   C 0  0  0  0  0  0  0  0  0  0  0  0
   19.7810   59.2560   25.6280   C 0  0  0  0  0  0  0  0  0  0  0  0
   21.0960   59.1760   25.5620   N 0  0  0  0  0  0  0  0  0  0  0  0
   21.6080   58.5940   24.3630   C 0  0  0  0  0  0  0  0  0  0  0  0
   17.4650   59.0060   24.4510   C 0  0  0  0  0  0  0  0  0  0  0  0
   16.9570   59.9670   25.5330   N 0  0  0  0  0  0  0  0  0  0  0  0
   16.2250   59.1840   26.6430   C 0  0  0  0  0  0  0  0  0  0  0  0
   18.1220   64.1000   25.8050   C 0  0  0  0  0  0  0  0  0  0  0  0
   17.2880   63.5110   26.7320   C 0  0  0  0  0  0  0  0  0  0  0  0
   16.8450   62.1950   26.6880   C 0  0  0  0  0  0  0  0  0  0  0  0
   17.3200   61.4520   25.6800   C 0  0  0  0  0  0  0  0  0  0  0  0
   18.1410   62.0980   24.6720   C 0  0  0  0  0  0  0  0  0  0  0  0
   18.5180   63.4140   24.7380   C 0  0  0  0  0  0  0  0  0  0  0  0
   18.1920   65.6260   25.8340   C 0  0  0  0  0  0  0  0  0  0  0  0
   17.5160   66.2800   26.7830   O 0  0  0  0  0  0  0  0  0  0  0  0
   19.3290   65.9810   25.1350   N 0  0  0  0  0  0  0  0  0  0  0  0
   19.8370   67.4590   25.1350   C 0  0  0  0  0  0  0  0  0  0  0  0
   20.1590   67.5480   23.6350   C 0  0  0  0  0  0  0  0  0  0  0  0
   20.2890   66.6590   22.8480   O 0  0  0  0  0  0  0  0  0  0  0  0
   19.9210   68.7500   23.1490   O 0  0  0  0  0  0  0  0  0  0  0  0
   21.2170   67.6690   25.7610   C 0  0  0  0  0  0  0  0  0  0  0  0
   20.8910   67.6360   27.3200   C 0  0  0  0  0  0  0  0  0  0  0  0
   19.9210   68.5240   28.3570   C 0  0  0  0  0  0  0  0  0  0  0  0
   19.4130   68.3710   29.5930   O 0  0  0  0  0  0  0  0  0  0  0  0
   19.4410   69.4690   27.4890   O 0  0  0  0  0  0  0  0  0  0  0  0
  1  2  2  0  0  0  0
  1 12  1  0  0  0  0
  2  3  1  0  0  0  0
  2  4  1  0  0  0  0
  4  5  2  0  0  0  0
  5  6  1  0  0  0  0
  5  7  1  0  0  0  0
  7  8  1  0  0  0  0
  7 12  2  0  0  0  0
  8  9  2  0  0  0  0
  9 10  1  0  0  0  0
  9 13  1  0  0  0  0
 10 11  2  0  0  0  0
 11 12  1  0  0  0  0
 13 14  1  0  0  0  0
 14 15  1  0  0  0  0
 14 19  1  0  0  0  0
 16 17  2  0  0  0  0
 16 21  1  0  0  0  0
 16 22  1  0  0  0  0
 17 18  1  0  0  0  0
 18 19  2  0  0  0  0
 19 20  1  0  0  0  0
 20 21  2  0  0  0  0
 22 23  2  0  0  0  0
 22 24  1  0  0  0  0
 24 25  1  0  0  0  0
 25 26  1  0  0  0  0
 25 29  1  0  0  0  0
 26 27  2  0  0  0  0
 26 28  1  0  0  0  0
 29 30  1  0  0  0  0
 30 31  1  0  0  0  0
 31 32  2  0  0  0  0
 31 33  1  0  0  0  0
A    1
N1
A    2
C2
A    3
NA2
A    4
N3
A    5
C4
A    6
NA4
A    7
C4A
A    8
N5
A    9
C6
A   10
C7
A   11
N8
A   12
C8A
A   13
C9
A   14
N10
A   15
CM
A   16
C11
A   17
C12
A   18
C13
A   19
C14
A   20
C15
A   21
C16
A   22
C
A   23
O
A   24
N
A   25
CA
A   26
CT
A   27
O1
A   28
O2
A   29
CB
A   30
CG
A   31
CD
A   32
OE1
A   33
OE2
M  END
>  <InstanceId>
4DFR_MTX_A_161

>  <ChemCompId>
MTX

>  <PdbId>
4DFR

>  <ChainId>
A

>  <ResidueNumber>
161

>  <InsertionCode>


>  <Model>
1

>  <AltIds>


>  <MissingHeavyAtoms>
0

>  <ObservedFormula>
C20 N8 O5

>  <Name>
METHOTREXATE

>  <SystematicName>
(2S)-2-[[4-[(2,4-diaminopteridin-6-yl)methyl-methyl-amino]phenyl]carbonylamino]pentanedioic acid

>  <Synonyms>


>  <Type>
NON-POLYMER

>  <Formula>
C20 H22 N8 O5

>  <MolecularWeight>
454.439

>  <ModifiedDate>
2011-06-04

>  <Parent>


>  <OneLetterCode>


>  <SubcomponentList>


>  <AmbiguousFlag>
N

>  <InChI>
InChI=1S/C20H22N8O5/c1-28(9-11-8-23-17-15(24-11)16(21)26-20(22)27-17)12-4-2-10(3-5-12)18(31)25-13(19(32)33)6-7-14(29)30/h2-5,8,13H,6-7,9H2,1H3,(H,25,31)(H,29,30)(H,32,33)(H4,21,22,23,26,27)/t13-/m0/s1

>  <InChIKey>
FBOZXECLQNJBKD-ZDUSSCGKSA-N

>  <SMILES>
CN(Cc1cnc2c(n1)c(nc(n2)N)N)c3ccc(cc3)C(=O)N[C@@H](CCC(=O)O)C(=O)O

$$$$
4DFR_MTX_B_162
  RCSB PDB01161510043D
Coordinates from PDB:4DFR:B:162 Model:1 without hydrogens
 33 35  0  0  0  0            999 V2000
   16.7240   65.1010   45.8570   N 0  0  0  0  0  0  0  0  0  0  0  0
   16.1360   65.4240   47.0490   C 0  0  0  0  0  0  0  0  0  0  0  0
   14.8080   64.9960   47.2700   N 0  0  0  0  0  0  0  0  0  0  0  0
   16.7660   66.0780   48.0710   N 0  0  0  0  0  0  0  0  0  0  0  0
   18.0010   66.5870   47.9240   C 0  0  0  0  0  0  0  0  0  0  0  0
   18.5230   67.2970   48.8880   N 0  0  0  0  0  0  0  0  0  0  0  0
   18.6300   66.3690   46.6440   C 0  0  0  0  0  0  0  0  0  0  0  0
   19.8140   66.9820   46.4900   N 0  0  0  0  0  0  0  0  0  0  0  0
   20.3080   66.8210   45.2610   C 0  0  0  0  0  0  0  0  0  0  0  0
   19.7250   66.1020   44.3710   C 0  0  0  0  0  0  0  0  0  0  0  0
   18.5600   65.4240   44.4010   N 0  0  0  0  0  0  0  0  0  0  0  0
   17.9910   65.7470   45.6440   C 0  0  0  0  0  0  0  0  0  0  0  0
   21.7110   67.3940   45.0480   C 0  0  0  0  0  0  0  0  0  0  0  0
   22.0280   67.7170   43.5400   N 0  0  0  0  0  0  0  0  0  0  0  0
   23.2960   66.8770   43.2970   C 0  0  0  0  0  0  0  0  0  0  0  0
   19.7020   69.9690   41.0610   C 0  0  0  0  0  0  0  0  0  0  0  0
   20.7460   69.2110   40.4950   C 0  0  0  0  0  0  0  0  0  0  0  0
   21.5340   68.5080   41.3550   C 0  0  0  0  0  0  0  0  0  0  0  0
   21.1890   68.4920   42.7240   C 0  0  0  0  0  0  0  0  0  0  0  0
   20.1680   69.3070   43.2310   C 0  0  0  0  0  0  0  0  0  0  0  0
   19.4220   70.0990   42.4510   C 0  0  0  0  0  0  0  0  0  0  0  0
   18.9660   70.7770   40.0900   C 0  0  0  0  0  0  0  0  0  0  0  0
   19.4690   71.0190   39.0020   O 0  0  0  0  0  0  0  0  0  0  0  0
   17.7350   71.0510   40.4290   N 0  0  0  0  0  0  0  0  0  0  0  0
   16.8770   71.9230   39.7150   C 0  0  0  0  0  0  0  0  0  0  0  0
   16.3970   72.9480   40.5610   C 0  0  0  0  0  0  0  0  0  0  0  0
   16.2020   72.6260   41.8630   O 0  0  0  0  0  0  0  0  0  0  0  0
   15.8660   74.1110   40.3620   O 0  0  0  0  0  0  0  0  0  0  0  0
   15.6560   71.1970   39.2590   C 0  0  0  0  0  0  0  0  0  0  0  0
   16.0800   70.3490   37.9050   C 0  0  0  0  0  0  0  0  0  0  0  0
   16.2860   70.8980   36.2720   C 0  0  0  0  0  0  0  0  0  0  0  0
   17.5070   70.4130   35.8530   O 0  0  0  0  0  0  0  0  0  0  0  0
   15.7220   72.1170   36.2360   O 0  0  0  0  0  0  0  0  0  0  0  0
  1  2  2  0  0  0  0
  1 12  1  0  0  0  0
  2  3  1  0  0  0  0
  2  4  1  0  0  0  0
  4  5  2  0  0  0  0
  5  6  1  0  0  0  0
  5  7  1  0  0  0  0
  7  8  1  0  0  0  0
  7 12  2  0  0  0  0
  8  9  2  0  0  0  0
  9 10  1  0  0  0  0
  9 13  1  0  0  0  0
 10 11  2  0  0  0  0
 11 12  1  0  0  0  0
 13 14  1  0  0  0  0
 14 15  1  0  0  0  0
 14 19  1  0  0  0  0
 16 17  2  0  0  0  0
 16 21  1  0  0  0  0
 16 22  1  0  0  0  0
 17 18  1  0  0  0  0
 18 19  2  0  0  0  0
 19 20  1  0  0  0  0
 20 21  2  0  0  0  0
 22 23  2  0  0  0  0
 22 24  1  0  0  0  0
 24 25  1  0  0  0  0
 25 26  1  0  0  0  0
 25 29  1  0  0  0  0
 26 27  2  0  0  0  0
 26 28  1  0  0  0  0
 29 30  1  0  0  0  0
 30 31  1  0  0  0  0
 31 32  2  0  0  0  0
 31 33  1  0  0  0  0
A    1
N1
A    2
C2
A    3
NA2
A    4
N3
A    5
C4
A    6
NA4
A    7
C4A
A    8
N5
A    9
C6
A   10
C7
A   11
N8
A   12
C8A
A   13
C9
A   14
N10
A   15
CM
A   16
C11
A   17
C12
A   18
C13
A   19
C14
A   20
C15
A   21
C16
A   22
C
A   23
O
A   24
N
A   25
CA
A   26
CT
A   27
O1
A   28
O2
A   29
CB
A   30
CG
A   31
CD
A   32
OE1
A   33
OE2
M  END
>  <InstanceId>
4DFR_MTX_B_162

>  <ChemCompId>
MTX

>  <PdbId>
4DFR

>  <ChainId>
B

>  <ResidueNumber>
162

>  <InsertionCode>


>  <Model>
1

>  <AltIds>


>  <MissingHeavyAtoms>
0

>  <ObservedFormula>
C20 N8 O5

>  <Name>
METHOTREXATE

>  <SystematicName>
(2S)-2-[[4-[(2,4-diaminopteridin-6-yl)methyl-methyl-amino]phenyl]carbonylamino]pentanedioic acid

>  <Synonyms>


>  <Type>
NON-POLYMER

>  <Formula>
C20 H22 N8 O5

>  <MolecularWeight>
454.439

>  <ModifiedDate>
2011-06-04

>  <Parent>


>  <OneLetterCode>


>  <SubcomponentList>


>  <AmbiguousFlag>
N

>  <InChI>
InChI=1S/C20H22N8O5/c1-28(9-11-8-23-17-15(24-11)16(21)26-20(22)27-17)12-4-2-10(3-5-12)18(31)25-13(19(32)33)6-7-14(29)30/h2-5,8,13H,6-7,9H2,1H3,(H,25,31)(H,29,30)(H,32,33)(H4,21,22,23,26,27)/t13-/m0/s1

>  <InChIKey>
FBOZXECLQNJBKD-ZDUSSCGKSA-N

>  <SMILES>
CN(Cc1cnc2c(n1)c(nc(n2)N)N)c3ccc(cc3)C(=O)N[C@@H](CCC(=O)O)C(=O)O

$$$$
