2MCP_PC_H_223
  RCSB PDB01151505543D
Coordinates from PDB:2MCP:H:223 Model:1 without hydrogens
 11 10  0  0  0  0            999 V2000
   49.3730   57.0640  -37.8060   P 0  0  0  0  0  0  0  0  0  0  0  0
   49.9370   57.0160  -36.4030   O 0  0  0  0  0  0  0  0  0  0  0  0
   50.3820   56.6260  -38.8160   O 0  0  0  0  0  0  0  0  0  0  0  0
   47.9990   56.5130  -37.7670   O 0  0  0  0  0  0  0  0  0  0  0  0
   49.3050   58.6700  -38.0330   O 0  0  0  0  0  0  0  0  0  0  0  0
   49.6390   59.4420  -36.8830   C 0  0  0  0  0  0  0  0  0  0  0  0
   50.9850   59.0180  -36.2820   C 0  0  0  0  0  0  0  0  0  0  0  0
   51.1110   59.5510  -34.8670   N 0  3  0  0  0  0  0  0  0  0  0  0
   50.0110   59.0640  -34.0310   C 0  0  0  0  0  0  0  0  0  0  0  0
   52.4710   59.1760  -34.2810   C 0  0  0  0  0  0  0  0  0  0  0  0
   51.0250   61.0600  -34.9880   C 0  0  0  0  0  0  0  0  0  0  0  0
  1  2  2  0  0  0  0
  1  3  1  0  0  0  0
  1  4  1  0  0  0  0
  1  5  1  0  0  0  0
  5  6  1  0  0  0  0
  6  7  1  0  0  0  0
  7  8  1  0  0  0  0
  8  9  1  0  0  0  0
  8 10  1  0  0  0  0
  8 11  1  0  0  0  0
M  CHG  1   8   1
A    1
P1
A    2
O1
A    3
O3
A    4
O4
A    5
O2
A    6
C1
A    7
C2
A    8
N1
A    9
C3
A   10
C4
A   11
C5
M  END
>  <InstanceId>
2MCP_PC_H_223

>  <ChemCompId>
PC

>  <PdbId>
2MCP

>  <ChainId>
H

>  <ResidueNumber>
223

>  <InsertionCode>


>  <Model>
1

>  <AltIds>


>  <MissingHeavyAtoms>
0

>  <ObservedFormula>
C5 N O4 P

>  <Name>
PHOSPHOCHOLINE

>  <SystematicName>
trimethyl-(2-phosphonooxyethyl)azanium

>  <Synonyms>


>  <Type>
NON-POLYMER

>  <Formula>
C5 H15 N O4 P

>  <MolecularWeight>
184.151

>  <ModifiedDate>
2011-06-04

>  <Parent>


>  <OneLetterCode>


>  <SubcomponentList>


>  <AmbiguousFlag>
N

>  <InChI>
InChI=1S/C5H14NO4P/c1-6(2,3)4-5-10-11(7,8)9/h4-5H2,1-3H3,(H-,7,8,9)/p+1

>  <InChIKey>
YHHSONZFOIEMCP-UHFFFAOYSA-O

>  <SMILES>
C[N+](C)(C)CCOP(=O)(O)O

$$$$
