REMARK  5 active torsions:
REMARK  status: ('A' for Active; 'I' for Inactive)
REMARK    1  A    between atoms: N_1  and  CA_5 
REMARK    2  A    between atoms: CA_5  and  CB_8 
REMARK    3  A    between atoms: CA_5  and  C_6 
REMARK    4  A    between atoms: CB_8  and  CG_9 
REMARK    5  A    between atoms: CZ_14  and  OH_15 
ROOT
HETATM    1  N   TYR A 502      -3.021  29.999  -8.017  1.00 10.00    -0.065 N 
HETATM    2  HN1 TYR A 502      -2.754  29.398  -7.238  1.00  0.00     0.275 HD
HETATM    3  HN2 TYR A 502      -4.006  29.903  -8.263  1.00  0.00     0.275 HD
HETATM    4  HN3 TYR A 502      -3.034  30.986  -7.760  1.00  0.00     0.275 HD
ENDROOT
BRANCH   1   5
HETATM    5  CA  TYR A 502      -2.133  29.729  -9.153  1.00 10.00     0.287 C 
BRANCH   5   6
HETATM    6  CB  TYR A 502      -2.536  30.638 -10.331  1.00 10.00     0.082 C 
BRANCH   6   7
HETATM    7  CG  TYR A 502      -2.016  30.131 -11.682  1.00 10.00    -0.056 A 
HETATM    8  CD2 TYR A 502      -2.812  29.412 -12.538  1.00 10.00     0.010 A 
HETATM    9  CE2 TYR A 502      -2.333  28.952 -13.800  1.00 10.00     0.037 A 
HETATM   10  CZ  TYR A 502      -1.033  29.327 -14.161  1.00 10.00     0.065 A 
HETATM   11  CE1 TYR A 502      -0.212  30.028 -13.345  1.00 10.00     0.037 A 
HETATM   12  CD1 TYR A 502      -0.712  30.494 -12.060  1.00 10.00     0.010 A 
BRANCH  10  13
HETATM   13  OH  TYR A 502      -0.570  28.906 -15.388  1.00 10.00    -0.361 OA
HETATM   14  HH  TYR A 502       0.312  29.160 -15.633  1.00  0.00     0.217 HD
ENDBRANCH  10  13
ENDBRANCH   6   7
ENDBRANCH   5   6
BRANCH   5  15
HETATM   15  C   TYR A 502      -0.755  30.002  -8.541  1.00 10.00     0.204 C 
HETATM   16  O   TYR A 502       0.084  29.095  -8.427  1.00 10.00    -0.646 OA
HETATM   17  OXT TYR A 502      -0.541  31.247  -8.157  1.00 10.00    -0.646 OA
ENDBRANCH   5  15
ENDBRANCH   1   5
TORSDOF 5
